pglib_opf_case2742_goc/dapi/pglib_opf_case2742_goc_7regions_dapi.m
% -------------------------------------------------------------------------
% Partitioned MATPOWER Case File
% Copyright (c) 2025 Milad Hasanzadeh
% Generated on: 2026-06-14
% This file contains partitioned data for 7 regions


% -------------------- mpc_regionR1 --------------------

mpc_regionR1.version = '2';
mpc_regionR1.baseMVA = 100.0000;
mpc_regionR1.bus = [
%	bus_i       type        Pd          Qd          Gs          Bs          area        Vm          Va          baseKV      zone        Vmax        Vmin        
	 1	 2	 0	 0	 0	 0	 1	 1	 0	 500	 1	 1.1	 0.9;
	 2	 1	 0	 0	 0	 0	 1	 1	 0	 500	 1	 1.1	 0.9;
	 3	 1	 0	 0	 0	 0	 1	 1	 0	 500	 1	 1.1	 0.9;
	 4	 1	 0	 0	 0	 0	 1	 1	 0	 500	 1	 1.1	 0.9;
	 5	 1	 0	 0	 0	 0	 1	 1	 0	 230	 1	 1.1	 0.9;
	 6	 1	 43.4	 0	 0	 0	 1	 1	 0	 500	 1	 1.1	 0.9;
	 7	 1	 0	 0	 0	 0	 1	 1	 0	 138	 1	 1.1	 0.9;
	 8	 2	 0	 0	 0	 0	 1	 1	 0	 138	 1	 1.1	 0.9;
	 9	 2	 0	 0	 0	 0	 1	 1	 0	 230	 1	 1.1	 0.9;
	 10	 1	 0	 0	 0	 0	 1	 1	 0	 69	 1	 1.1	 0.9;
	 11	 1	 0	 0	 0	 0	 1	 1	 0	 69	 1	 1.1	 0.9;
	 12	 1	 12.48	 1.38	 0	 0	 1	 1	 0	 500	 1	 1.1	 0.9;
	 13	 1	 51.78	 7	 0	 0	 1	 1	 0	 500	 1	 1.1	 0.9;
	 14	 1	 20.46	 2.32	 0	 0	 1	 1	 0	 230	 1	 1.1	 0.9;
	 15	 1	 25.55	 4.09	 0	 0	 1	 1	 0	 69	 1	 1.1	 0.9;
	 16	 1	 0	 0	 0	 0	 1	 1	 0	 500	 1	 1.1	 0.9;
	 17	 1	 23.18	 3.8	 0	 0	 1	 1	 0	 500	 1	 1.1	 0.9;
	 18	 1	 0	 0	 0	 0	 1	 1	 0	 138	 1	 1.1	 0.9;
	 19	 1	 12.35	 1.69	 0	 0	 1	 1	 0	 69	 1	 1.1	 0.9;
	 20	 1	 0	 0	 0	 0	 1	 1	 0	 138	 1	 1.1	 0.9;
	 21	 1	 28.66	 4.65	 0	 0	 1	 1	 0	 69	 1	 1.1	 0.9;
	 22	 1	 19.48	 2.64	 0	 0	 1	 1	 0	 69	 1	 1.1	 0.9;
	 23	 1	 21.53	 2.43	 0	 0	 1	 1	 0	 138	 1	 1.1	 0.9;
	 24	 1	 0	 0	 0	 0	 1	 1	 0	 230	 1	 1.1	 0.9;
	 25	 1	 10.64	 1.48	 0	 0	 1	 1	 0	 69	 1	 1.1	 0.9;
	 26	 1	 15.5	 1.92	 0	 0	 1	 1	 0	 69	 1	 1.1	 0.9;
	 27	 1	 0	 0	 0	 0	 1	 1	 0	 230	 1	 1.1	 0.9;
	 28	 1	 12.62	 2.04	 0	 0	 1	 1	 0	 69	 1	 1.1	 0.9;
	 29	 1	 12.54	 2.02	 0	 0	 1	 1	 0	 69	 1	 1.1	 0.9;
	 30	 1	 0	 0	 0	 0	 1	 1	 0	 230	 1	 1.1	 0.9;
	 31	 1	 25.4	 2.88	 0	 0	 1	 1	 0	 69	 1	 1.1	 0.9;
	 32	 1	 47.52	 5.29	 0	 0	 1	 1	 0	 69	 1	 1.1	 0.9;
	 33	 1	 15.27	 0	 0	 0	 1	 1	 0	 69	 1	 1.1	 0.9;
	 34	 1	 6.2	-1	 0	 0	 1	 1	 0	 69	 1	 1.1	 0.9;
	 35	 1	 7.68	-2.03	 0	 0	 1	 1	 0	 69	 1	 1.1	 0.9;
	 36	 1	 12.18	 1.32	 0	 0	 1	 1	 0	 69	 1	 1.1	 0.9;
	 37	 1	 0.98	 0.11	 0	 0	 1	 1	 0	 69	 1	 1.1	 0.9;
	 38	 1	 0	 0	 0	 0	 1	 1	 0	 230	 1	 1.1	 0.9;
	 39	 1	 0	 0	 0	 0	 1	 1	 0	 138	 1	 1.1	 0.9;
	 40	 1	 21.7	 2.52	 0	 0	 1	 1	 0	 69	 1	 1.1	 0.9;
	 41	 1	 14.26	 1.54	 0	 0	 1	 1	 0	 69	 1	 1.1	 0.9;
	 42	 1	 0	 0	 0	 0	 1	 1	 0	 138	 1	 1.1	 0.9;
	 43	 1	 3.64	 0.57	 0	 0	 1	 1	 0	 69	 1	 1.1	 0.9;
	 44	 1	 0.23	 0.03	 0	 0	 1	 1	 0	 69	 1	 1.1	 0.9;
	 45	 1	 4.13	 0.57	 0	 0	 1	 1	 0	 69	 1	 1.1	 0.9;
	 46	 1	 12.01	 1.89	 0	 0	 1	 1	 0	 69	 1	 1.1	 0.9;
	 47	 1	 5.34	 0.6	 0	 0	 1	 1	 0	 69	 1	 1.1	 0.9;
	 48	 1	 5.58	 0.64	 0	 0	 1	 1	 0	 69	 1	 1.1	 0.9;
	 49	 1	 15.84	 2.53	 0	 0	 1	 1	 0	 69	 1	 1.1	 0.9;
	 50	 1	 8.88	 1	 0	 0	 1	 1	 0	 69	 1	 1.1	 0.9;
	 51	 1	 5.9	 0.67	 0	 0	 1	 1	 0	 69	 1	 1.1	 0.9;
	 52	 1	 5.6	 0.63	 0	 0	 1	 1	 0	 69	 1	 1.1	 0.9;
	 53	 1	 8.84	 0.95	 0	 0	 1	 1	 0	 138	 1	 1.1	 0.9;
	 54	 1	 5.37	 0.57	 0	 0	 1	 1	 0	 138	 1	 1.1	 0.9;
	 55	 1	 5.53	 0.62	 0	 0	 1	 1	 0	 69	 1	 1.1	 0.9;
	 56	 1	 0	 0	 0	 0	 1	 1	 0	 500	 1	 1.1	 0.9;
	 57	 1	 0	 0	 0	 0	 1	 1	 0	 138	 1	 1.1	 0.9;
	 58	 1	 5.36	 0.85	 0	 0	 1	 1	 0	 69	 1	 1.1	 0.9;
	 59	 1	 0	 0	 0	 0	 1	 1	 0	 138	 1	 1.1	 0.9;
	 60	 1	 3.66	 0.46	 0	 0	 1	 1	 0	 138	 1	 1.1	 0.9;
	 61	 1	 8.07	 0.94	 0	 0	 1	 1	 0	 69	 1	 1.1	 0.9;
	 62	 1	 8.05	 1.3	 0	 0	 1	 1	 0	 69	 1	 1.1	 0.9;
	 63	 1	 8.2	 0.93	 0	 0	 1	 1	 0	 69	 1	 1.1	 0.9;
	 64	 1	 5.94	 0.81	 0	 0	 1	 1	 0	 69	 1	 1.1	 0.9;
	 65	 1	 15.75	 1.97	 0	 0	 1	 1	 0	 138	 1	 1.1	 0.9;
	 66	 1	 0	 0	 0	 0	 1	 1	 0	 138	 1	 1.1	 0.9;
	 67	 1	 7.07	 0.79	 0	 0	 1	 1	 0	 138	 1	 1.1	 0.9;
	 68	 1	 6.24	 0.68	 0	 0	 1	 1	 0	 138	 1	 1.1	 0.9;
	 69	 1	 14.8	 1.66	 0	 0	 1	 1	 0	 69	 1	 1.1	 0.9;
	 70	 1	 21.04	 2.31	 0	 0	 1	 1	 0	 69	 1	 1.1	 0.9;
	 71	 1	 12.41	 1.73	 0	 0	 1	 1	 0	 69	 1	 1.1	 0.9;
	 72	 1	 0	 0	 0	 0	 1	 1	 0	 138	 1	 1.1	 0.9;
	 73	 1	 0	 0	 0	 0	 1	 1	 0	 138	 1	 1.1	 0.9;
	 74	 1	 0	 0	 0	 0	 1	 1	 0	 138	 1	 1.1	 0.9;
	 75	 1	 43.22	 5.87	 0	 0	 1	 1	 0	 69	 1	 1.1	 0.9;
	 76	 1	 21.36	 2.93	 0	 0	 1	 1	 0	 69	 1	 1.1	 0.9;
	 77	 1	 0	 0	 0	 0	 1	 1	 0	 138	 1	 1.1	 0.9;
	 78	 1	 0	 0	 0	 0	 1	 1	 0	 138	 1	 1.1	 0.9;
	 79	 1	 8.26	 1.15	 0	 0	 1	 1	 0	 69	 1	 1.1	 0.9;
	 80	 1	 20.25	 2.27	 0	 0	 1	 1	 0	 69	 1	 1.1	 0.9;
	 81	 1	 0	 0	 0	 0	 1	 1	 0	 138	 1	 1.1	 0.9;
	 82	 1	 8.6	 1.4	 0	 0	 1	 1	 0	 69	 1	 1.1	 0.9;
	 83	 1	 14.8	 2.11	 0	 0	 1	 1	 0	 69	 1	 1.1	 0.9;
	 84	 1	 0	 0	 0	 0	 1	 1	 0	 138	 1	 1.1	 0.9;
	 85	 1	 6.24	 0.72	 0	 0	 1	 1	 0	 69	 1	 1.1	 0.9;
	 86	 1	 4.73	 0.75	 0	 0	 1	 1	 0	 69	 1	 1.1	 0.9;
	 87	 1	 6.77	 0.84	 0	 0	 1	 1	 0	 138	 1	 1.1	 0.9;
	 88	 1	 0	 0	 0	 0	 1	 1	 0	 138	 1	 1.1	 0.9;
	 89	 1	 9.94	 1.13	 0	 0	 1	 1	 0	 69	 1	 1.1	 0.9;
	 90	 1	 0	 0	 0	 0	 1	 1	 0	 138	 1	 1.1	 0.9;
	 91	 1	 14.99	 2.45	 0	 0	 1	 1	 0	 69	 1	 1.1	 0.9;
	 92	 1	 3.49	 0.49	 0	 0	 1	 1	 0	 69	 1	 1.1	 0.9;
	 93	 1	 1.81	 0.29	 0	 0	 1	 1	 0	 69	 1	 1.1	 0.9;
	 94	 1	 11.28	 1.56	 0	 0	 1	 1	 0	 69	 1	 1.1	 0.9;
	 95	 1	 0	 0	 0	 0	 1	 1	 0	 138	 1	 1.1	 0.9;
	 96	 1	 2.96	 0.42	 0	 0	 1	 1	 0	 69	 1	 1.1	 0.9;
	 97	 1	 0	 0	 0	 0	 1	 1	 0	 138	 1	 1.1	 0.9;
	 98	 1	 13.45	 2.19	 0	 0	 1	 1	 0	 69	 1	 1.1	 0.9;
	 99	 1	 0	 0	 0	 0	 1	 1	 0	 138	 1	 1.1	 0.9;
	 100	 1	 0	 0	 0	 0	 1	 1	 0	 138	 1	 1.1	 0.9;
	 101	 1	 0	 0	 0	 0	 1	 1	 0	 138	 1	 1.1	 0.9;
	 102	 1	 9.56	 1.11	 0	 0	 1	 1	 0	 69	 1	 1.1	 0.9;
	 103	 1	 0	 0	 0	 0	 1	 1	 0	 230	 1	 1.1	 0.9;
	 104	 1	 12.52	 1.45	 0	 0	 1	 1	 0	 138	 1	 1.1	 0.9;
	 105	 1	 196.92	 27.03	 0	 0	 1	 1	 0	 138	 1	 1.1	 0.9;
	 106	 1	 7.88	 0.89	 0	 0	 1	 1	 0	 69	 1	 1.1	 0.9;
	 107	 1	 0	 0	 0	 0	 1	 1	 0	 138	 1	 1.1	 0.9;
	 108	 1	 6.71	 1.06	 0	 0	 1	 1	 0	 69	 1	 1.1	 0.9;
	 109	 1	 2.07	 0.29	 0	 0	 1	 1	 0	 69	 1	 1.1	 0.9;
	 110	 1	 3.62	 0.5	 0	 0	 1	 1	 0	 69	 1	 1.1	 0.9;
	 111	 1	 0	 0	 0	 0	 1	 1	 0	 230	 1	 1.1	 0.9;
	 112	 1	 5.19	 0.58	 0	 0	 1	 1	 0	 230	 1	 1.1	 0.9;
	 113	 1	 3.55	 0.5	 0	 0	 1	 1	 0	 69	 1	 1.1	 0.9;
	 114	 1	 18.2	 2.5	 0	 0	 1	 1	 0	 69	 1	 1.1	 0.9;
	 115	 1	 0	 0	 0	 0	 1	 1	 0	 230	 1	 1.1	 0.9;
	 116	 1	 0	 0	 0	 0	 1	 1	 0	 138	 1	 1.1	 0.9;
	 117	 1	 14.26	 1.74	 0	 0	 1	 1	 0	 230	 1	 1.1	 0.9;
	 118	 1	 29	 4.64	 0	 0	 1	 1	 0	 230	 1	 1.1	 0.9;
	 119	 1	 274.67	 36.9	 0	 0	 1	 1	 0	 500	 1	 1.1	 0.9;
	 120	 1	 168	 23	 0	 0	 1	 1	 0	 500	 1	 1.1	 0.9;
	 121	 1	 12.41	 1.73	 0	 0	 1	 1	 0	 69	 1	 1.1	 0.9;
	 122	 1	 0	 0	 0	 0	 1	 1	 0	 138	 1	 1.1	 0.9;
	 123	 1	 15.86	 2.53	 0	 0	 1	 1	 0	 69	 1	 1.1	 0.9;
	 124	 1	 17.69	 2.85	 0	 0	 1	 1	 0	 69	 1	 1.1	 0.9;
	 125	 1	 0	 0	 0	 0	 1	 1	 0	 138	 1	 1.1	 0.9;
	 126	 1	 24.93	 3.53	 0	 0	 1	 1	 0	 69	 1	 1.1	 0.9;
	 127	 1	 14.16	 1.64	 0	 0	 1	 1	 0	 138	 1	 1.1	 0.9;
	 128	 1	 0	 0	 0	 0	 1	 1	 0	 138	 1	 1.1	 0.9;
	 129	 1	 18.54	 2.26	 0	 0	 1	 1	 0	 138	 1	 1.1	 0.9;
	 130	 1	 0	 0	 0	 0	 1	 1	 0	 138	 1	 1.1	 0.9;
	 131	 1	 23.51	 2.7	 0	 0	 1	 1	 0	 138	 1	 1.1	 0.9;
	 132	 1	 40	 4.3	 0	 0	 1	 1	 0	 230	 1	 1.1	 0.9;
	 133	 1	 24.87	 2.7	 0	 0	 1	 1	 0	 230	 1	 1.1	 0.9;
	 134	 1	 21.76	 2.63	 0	 0	 1	 1	 0	 230	 1	 1.1	 0.9;
	 135	 1	 15.37	 2.49	 0	 0	 1	 1	 0	 138	 1	 1.1	 0.9;
	 136	 1	 13.18	 1.59	 0	 0	 1	 1	 0	 500	 1	 1.1	 0.9;
	 137	 1	 0	 0	 0	 0	 1	 1	 0	 500	 1	 1.1	 0.9;
	 138	 1	 25.61	 2.66	 0	 0	 1	 1	 0	 69	 1	 1.1	 0.9;
	 139	 1	 18.2	 2.08	 0	 0	 1	 1	 0	 138	 1	 1.1	 0.9;
	 140	 1	 0	 0	 0	 0	 1	 1	 0	 138	 1	 1.1	 0.9;
	 141	 1	 0	 0	 0	 0	 1	 1	 0	 138	 1	 1.1	 0.9;
	 142	 1	 0	 0	 0	 0	 1	 1	 0	 230	 1	 1.1	 0.9;
	 143	 1	 22.78	 2.76	 0	 0	 1	 1	 0	 230	 1	 1.1	 0.9;
	 144	 1	 18.2	 1.92	 0	 0	 1	 1	 0	 230	 1	 1.1	 0.9;
	 145	 1	 0	 0	 0	 0	 1	 1	 0	 138	 1	 1.1	 0.9;
	 146	 1	 25.19	 2.64	 0	 0	 1	 1	 0	 230	 1	 1.1	 0.9;
	 147	 1	 0	 0	 0	 0	 1	 1	 0	 230	 1	 1.1	 0.9;
	 148	 1	 0	 0	 0	 0	 1	 1	 0	 500	 1	 1.1	 0.9;
	 149	 1	 9.05	 1.01	 0	 0	 1	 1	 0	 69	 1	 1.1	 0.9;
	 150	 1	 13.39	 1.65	 0	 0	 1	 1	 0	 69	 1	 1.1	 0.9;
	 151	 1	 0	 0	 0	 0	 1	 1	 0	 138	 1	 1.1	 0.9;
	 152	 1	 0	 0	 0	 0	 1	 1	 0	 138	 1	 1.1	 0.9;
	 153	 1	 12.65	 1.41	 0	 0	 1	 1	 0	 69	 1	 1.1	 0.9;
	 154	 1	 0	 0	 0	 0	 1	 1	 0	 230	 1	 1.1	 0.9;
	 155	 1	 5.09	 0.71	 0	 0	 1	 1	 0	 69	 1	 1.1	 0.9;
	 156	 1	 6.3	 0.7	 0	 0	 1	 1	 0	 69	 1	 1.1	 0.9;
	 157	 1	 114.73	 0	 0	-9.9999705465	 1	 1	 0	 500	 1	 1.1	 0.9;
	 158	 1	 5.79	 0.94	 0	 0	 1	 1	 0	 138	 1	 1.1	 0.9;
	 159	 1	 4.93	 0	 0	 0	 1	 1	 0	 69	 1	 1.1	 0.9;
	 160	 1	 3.87	 0	 0	 0	 1	 1	 0	 69	 1	 1.1	 0.9;
	 161	 1	 12.28	 0	 0	 0	 1	 1	 0	 69	 1	 1.1	 0.9;
	 162	 1	 9.1	 0	 0	 0	 1	 1	 0	 69	 1	 1.1	 0.9;
	 163	 1	 0	 0	 0	 0	 1	 1	 0	 138	 1	 1.1	 0.9;
	 164	 1	 7.86	 0	 0	 0	 1	 1	 0	 138	 1	 1.1	 0.9;
	 165	 1	 0	 0	 0	 0	 1	 1	 0	 138	 1	 1.1	 0.9;
	 166	 1	 4.42	 0	 0	 0	 1	 1	 0	 69	 1	 1.1	 0.9;
	 167	 1	 0	 0	 0	 0	 1	 1	 0	 230	 1	 1.1	 0.9;
	 168	 1	 5.57	 0	 0	 0	 1	 1	 0	 69	 1	 1.1	 0.9;
	 169	 1	 6.39	 0	 0	 0	 1	 1	 0	 69	 1	 1.1	 0.9;
	 170	 1	 0	 0	 0	 0	 1	 1	 0	 138	 1	 1.1	 0.9;
	 171	 1	 0	 0	 0	 0	 1	 1	 0	 138	 1	 1.1	 0.9;
	 172	 1	 3.36	 0	 0	 0	 1	 1	 0	 69	 1	 1.1	 0.9;
	 173	 1	 10.79	 1.26	 0	 0	 1	 1	 0	 138	 1	 1.1	 0.9;
	 174	 1	 21.31	 2.37	 0	 0	 1	 1	 0	 138	 1	 1.1	 0.9;
	 175	 1	 10.52	 1.26	 0	 0	 1	 1	 0	 138	 1	 1.1	 0.9;
	 176	 1	 19.03	 2.02	 0	 0	 1	 1	 0	 138	 1	 1.1	 0.9;
	 177	 1	 0	 0	 0	 0	 1	 1	 0	 138	 1	 1.1	 0.9;
	 178	 1	 26.76	 3.25	 0	 0	 1	 1	 0	 138	 1	 1.1	 0.9;
	 179	 1	 18.89	 2.32	 0	 0	 1	 1	 0	 138	 1	 1.1	 0.9;
	 180	 1	 5.02	 0	 0	 0	 1	 1	 0	 69	 1	 1.1	 0.9;
	 181	 1	 8.36	 0	 0	 0	 1	 1	 0	 69	 1	 1.1	 0.9;
	 182	 1	 11.19	 0	 0	 0	 1	 1	 0	 69	 1	 1.1	 0.9;
	 183	 1	 8.16	 0	 0	 0	 1	 1	 0	 69	 1	 1.1	 0.9;
	 184	 1	 8.81	 0	 0	 0	 1	 1	 0	 69	 1	 1.1	 0.9;
	 185	 1	 0	 0	 0	 9.99998725067	 1	 1	 0	 138	 1	 1.1	 0.9;
	 186	 1	 13.84	 2.12	 0	 0	 1	 1	 0	 138	 1	 1.1	 0.9;
	 187	 1	 15.93	 2.21	 0	 0	 1	 1	 0	 138	 1	 1.1	 0.9;
	 188	 1	 7	 1.12	 0	 0	 1	 1	 0	 69	 1	 1.1	 0.9;
	 189	 1	 0	 0	 0	 0	 1	 1	 0	 230	 1	 1.1	 0.9;
	 190	 1	 0	 0	 0	 0	 1	 1	 0	 138	 1	 1.1	 0.9;
	 191	 1	 13.26	 1.82	 0	 0	 1	 1	 0	 138	 1	 1.1	 0.9;
	 192	 1	 6.71	 0.76	 0	 0	 1	 1	 0	 69	 1	 1.1	 0.9;
	 193	 1	 6.35	 0.73	 0	 0	 1	 1	 0	 69	 1	 1.1	 0.9;
	 194	 1	 6.85	 0.96	 0	 0	 1	 1	 0	 69	 1	 1.1	 0.9;
	 195	 1	 0	 0	 0	 0	 1	 1	 0	 138	 1	 1.1	 0.9;
	 196	 1	 26.44	 3.7	 0	 0	 1	 1	 0	 138	 1	 1.1	 0.9;
	 197	 1	 0	 0	 0	 0	 1	 1	 0	 138	 1	 1.1	 0.9;
	 198	 1	 0	 0	 0	 0	 1	 1	 0	 138	 1	 1.1	 0.9;
	 199	 1	 5.6	 0.77	 0	 0	 1	 1	 0	 69	 1	 1.1	 0.9;
	 200	 1	 27.51	 3.79	 0	 0	 1	 1	 0	 69	 1	 1.1	 0.9;
...
];

mpc_regionR1.gen = [
%	bus         Pg          Qg          Qmax        Qmin        Vg          mBase       status      Pmax        Pmin        Pc1         Pc2         Qc1min      Qc1max      Qc2min      Qc2max      ramp_agc    ramp_10     ramp_30     ramp_q      apf         
	 1	 405.5	 0	 356	-356	 1	 100	 1	 711	 100;
	 1	 332.5	 0	 307	-307	 1	 100	 1	 613	 52;
	 1	 345	 0	 319	-319	 1	 100	 1	 638	 52;
	 1	 348.25	 0	 327	-327	 1	 100	 1	 653	 43.5;
	 1	 297.75	 0	 278	-278	 1	 100	 1	 556	 39.5;
	 1	 839.75	 0	 724	-724	 1	 100	 1	 1447	 232.5;
	 8	 196	 0	 179	-179	 1	 100	 1	 357	 35;
	 9	 326	 0	 319	-319	 1	 100	 1	 637	 15;
	 9	 318.25	 0	 313	-313	 1	 100	 1	 626	 10.5;
	 9	 651.075	 0	 612	-612	 1	 100	 1	 1224	 78.15;
	 274	 144.5	 0	 117	-117	 1	 100	 1	 234	 55;
	 274	 110.5	 16	 115	-83	 1	 100	 1	 166	 55;
	 274	 113	 14.5	 115	-86	 1	 100	 1	 171	 55;
	 274	 332.25	 24.4	 339.8	-291	 1	 100	 1	 582	 82.5;
	 274	 320.75	 29.9	 339.8	-280	 1	 100	 1	 559	 82.5;
];

mpc_regionR1.branch = [
%	fbus        tbus        r           x           b           rateA       rateB       rateC       ratio       angle       status      angmin      angmax      
	 1	 16	 0.000382434	 0.00638885	 0.417572	 2056	 2056	 2056	 0	 0	 1	-30	 30;
	 1	 119	 6.38767e-05	 0.0018319	 0.127441	 3031	 3031	 3031	 0	 0	 1	-30	 30;
	 1	 120	 0.000354548	 0.00260022	 0.090228	 795	 795	 795	 0	 0	 1	-30	 30;
	 2	 136	 0.000563127	 0.00389733	 0.152178	 795	 795	 795	 0	 0	 1	-30	 30;
	 2	 148	 0.000178415	 0.00123467	 0.0482035	 795	 795	 795	 0	 0	 1	-30	 30;
	 3	 4	 5.94931e-05	 0.0004363	 0.0151388	 795	 795	 795	 0	 0	 1	-30	 30;
	 3	 157	 2.03418e-05	 0.000783785	 0.0676148	 4547	 4547	 4547	 0	 0	 1	-30	 30;
	 4	 120	 0.000834446	 0.00596585	 0.218158	 795	 795	 795	 0	 0	 1	-30	 30;
	 5	 154	 0.000380458	 0.00240968	 0.00504621	 366	 366	 366	 0	 0	 1	-30	 30;
	 6	 137	 0.00066	 0.005994	 0.226097	 1732	 1732	 1732	 0	 0	 1	-30	 30;
	 7	 171	 0.029848	 0.081286	 0.017914	 145	 145	 145	 0	 0	 1	-30	 30;
	 7	 259	 0.00562432	 0.0187625	 0.0047584	 142	 142	 142	 0	 0	 1	-30	 30;
	 7	 260	 0.00434402	 0.0176771	 0.0043068	 159	 159	 159	 0	 0	 1	-30	 30;
	 7	 261	 0.00398071	 0.0244597	 0.00894356	 230	 230	 230	 0	 0	 1	-30	 30;
	 8	 256	 0.00146864	 0.00902389	 0.00329938	 230	 230	 230	 0	 0	 1	-30	 30;
	 8	 257	 0.00356704	 0.0219178	 0.00801402	 230	 230	 230	 0	 0	 1	-30	 30;
	 9	 189	 0.001537	 0.013518	 0.0282	 940	 940	 940	 0	 0	 1	-30	 30;
	 9	 215	 5.44967e-05	 0.000763926	 0.00146467	 579	 579	 579	 0	 0	 1	-30	 30;
	 10	 161	 0.00641888	 0.0223701	 0.000324185	 71	 71	 71	 0	 0	 1	-30	 30;
	 10	 169	 0.0095206	 0.0255594	 0.000362036	 59	 59	 59	 0	 0	 1	-30	 30;
	 11	 168	 0.073454	 0.227204	 0.00299617	 64	 64	 64	 0	 0	 1	-30	 30;
	 11	 378	 0.023208	 0.060148	 0.001137	 75	 75	 75	 0	 0	 1	-30	 30;
	 12	 16	 0.000548331	 0.00402163	 0.139562	 795	 795	 795	 0	 0	 1	-30	 30;
	 13	 16	 0.000235488	 0.00277114	 0.103009	 1067	 1067	 1067	 0	 0	 1	-30	 30;
	 13	 17	 0.000349555	 0.00380263	 0.147797	 1028	 1028	 1028	 0	 0	 1	-30	 30;
	 14	 24	 0.00471645	 0.0318323	 0.0586363	 366	 366	 366	 0	 0	 1	-30	 30;
	 14	 281	 0.00404691	 0.0283826	 0.0483359	 366	 366	 366	 0	 0	 1	-30	 30;
	 15	 282	 0.0304261	 0.0706277	 0.00134482	 59	 59	 59	 0	 0	 1	-30	 30;
	 17	 56	 0.000213391	 0.00232124	 0.0902118	 1028	 1028	 1028	 0	 0	 1	-30	 30;
	 18	 20	 0.00594652	 0.0178983	 0.00559953	 142	 142	 142	 0	 0	 1	-30	 30;
	 19	 284	 0.0119697	 0.0277846	 0.000529037	 59	 59	 59	 0	 0	 1	-30	 30;
	 20	 42	 0.0202995	 0.0569506	 0.0146613	 128	 128	 128	 0	 0	 1	-30	 30;
	 20	 292	 0.0147613	 0.0516577	 0.0171223	 159	 159	 159	 0	 0	 1	-30	 30;
	 21	 29	 0.0350957	 0.0882232	 0.0014285	 59	 59	 59	 0	 0	 1	-30	 30;
	 22	 285	 0.0451543	 0.104818	 0.0019959	 59	 59	 59	 0	 0	 1	-30	 30;
	 23	 288	 0.019306	 0.0581191	 0.0181867	 142	 142	 142	 0	 0	 1	-30	 30;
	 24	 27	 0.00161937	 0.0105113	 0.0209371	 366	 366	 366	 0	 0	 1	-30	 30;
	 24	 38	 0.00268722	 0.0185121	 0.0326829	 366	 366	 366	 0	 0	 1	-30	 30;
	 25	 26	 0.0457155	 0.124468	 0.00171392	 59	 59	 59	 0	 0	 1	-30	 30;
	 26	 289	 0.0371303	 0.101092	 0.00139201	 59	 59	 59	 0	 0	 1	-30	 30;
	 26	 290	 0.0619657	 0.185577	 0.00261299	 64	 64	 64	 0	 0	 1	-30	 30;
	 27	 30	 0.00123797	 0.00852759	 0.0150536	 366	 366	 366	 0	 0	 1	-30	 30;
	 28	 31	 0.0283795	 0.0735517	 0.00139071	 64	 64	 64	 0	 0	 1	-30	 30;
	 28	 287	 0.0212752	 0.0992237	 0.00153596	 88	 88	 88	 0	 0	 1	-30	 30;
	 29	 287	 0.0176921	 0.0616582	 0.000893553	 71	 71	 71	 0	 0	 1	-30	 30;
	 31	 32	 0.0678237	 0.194733	 0.00240779	 59	 59	 59	 0	 0	 1	-30	 30;
	 32	 289	 0.0420002	 0.165443	 0.00186909	 71	 71	 71	 0	 0	 1	-30	 30;
	 32	 290	 0.0524845	 0.121836	 0.00231997	 59	 59	 59	 0	 0	 1	-30	 30;
	 33	 35	 0.00727036	 0.08131	 0.00135123	 154	 154	 154	 0	 0	 1	-30	 30;
	 33	 36	 0.0447582	 0.149318	 0.00236696	 71	 71	 71	 0	 0	 1	-30	 30;
	 33	 290	 0.0166097	 0.0989473	 0.00162697	 103	 103	 103	 0	 0	 1	-30	 30;
	 34	 35	 0.0734815	 0.197292	 0.00279489	 59	 59	 59	 0	 0	 1	-30	 30;
	 36	 37	 0.0578717	 0.202523	 0.00419544	 80	 80	 80	 0	 0	 1	-30	 30;
	 37	 156	 0.0707261	 0.247525	 0.00512822	 80	 80	 80	 0	 0	 1	-30	 30;
	 40	 41	 0.0528711	 0.122734	 0.00233707	 59	 59	 59	 0	 0	 1	-30	 30;
	 42	 53	 0.00110416	 0.00386343	 0.0012803	 159	 159	 159	 0	 0	 1	-30	 30;
	 42	 292	 0.00138543	 0.00816751	 0.00665013	 381	 381	 381	 0	 0	 1	-30	 30;
	 43	 44	 0.00485744	 0.0112753	 0.000214688	 59	 59	 59	 0	 0	 1	-30	 30;
	 43	 45	 0.00511585	 0.0132586	 0.000250687	 64	 64	 64	 0	 0	 1	-30	 30;
	 45	 46	 0.00655265	 0.0181718	 0.000241009	 59	 59	 59	 0	 0	 1	-30	 30;
	 46	 47	 0.00544404	 0.0148217	 0.000204084	 59	 59	 59	 0	 0	 1	-30	 30;
	 46	 71	 0.0143772	 0.033373	 0.000635446	 59	 59	 59	 0	 0	 1	-30	 30;
	 47	 49	 0.00543967	 0.0146036	 0.000206852	 59	 59	 59	 0	 0	 1	-30	 30;
	 47	 313	 0.0110873	 0.028501	 0.000441087	 59	 59	 59	 0	 0	 1	-30	 30;
	 48	 155	 0.00476931	 0.0166877	 0.000345632	 80	 80	 80	 0	 0	 1	-30	 30;
	 48	 313	 0.00505368	 0.0163769	 0.000196425	 64	 64	 64	 0	 0	 1	-30	 30;
	 49	 297	 0.00987961	 0.0253965	 0.00039304	 59	 59	 59	 0	 0	 1	-30	 30;
	 50	 51	 0.00532146	 0.0123524	 0.000235197	 59	 59	 59	 0	 0	 1	-30	 30;
	 51	 52	 0.00377173	 0.00875511	 0.000166702	 59	 59	 59	 0	 0	 1	-30	 30;
	 52	 58	 0.00600974	 0.0139501	 0.000265618	 59	 59	 59	 0	 0	 1	-30	 30;
	 53	 54	 0.000881803	 0.00308541	 0.00102247	 159	 159	 159	 0	 0	 1	-30	 30;
	 54	 57	 0.00134861	 0.00405908	 0.00126986	 142	 142	 142	 0	 0	 1	-30	 30;
	 56	 119	 0.000483405	 0.00484765	 0.356593	 1590	 1590	 1590	 0	 0	 1	-30	 30;
	 56	 136	 0.00118978	 0.00872933	 0.303089	 795	 795	 795	 0	 0	 1	-30	 30;
	 57	 60	 0.0015455	 0.00462812	 0.00104253	 128	 128	 128	 0	 0	 1	-30	 30;
	 58	 295	 0.00813179	 0.0188759	 0.000359408	 59	 59	 59	 0	 0	 1	-30	 30;
	 59	 60	 0.00122112	 0.00306956	 0.00079521	 118	 118	 118	 0	 0	 1	-30	 30;
	 59	 68	 0.00083745	 0.00279365	 0.000708491	 142	 142	 142	 0	 0	 1	-30	 30;
	 61	 63	 0.0146781	 0.0340716	 0.000648747	 59	 59	 59	 0	 0	 1	-30	 30;
	 62	 63	 0.00999799	 0.0268411	 0.00038019	 59	 59	 59	 0	 0	 1	-30	 30;
	 62	 336	 0.0243221	 0.0737382	 0.000816366	 59	 59	 59	 0	 0	 1	-30	 30;
	 63	 64	 0.0135432	 0.0363588	 0.000515004	 59	 59	 59	 0	 0	 1	-30	 30;
	 63	 341	 0.0211913	 0.0491906	 0.000936629	 59	 59	 59	 0	 0	 1	-30	 30;
	 64	 76	 0.0127757	 0.0365193	 0.000455643	 59	 59	 59	 0	 0	 1	-30	 30;
	 65	 77	 0.00427033	 0.0107345	 0.00278093	 118	 118	 118	 0	 0	 1	-30	 30;
	 66	 67	 0.00094627	 0.00287344	 0.000629268	 128	 128	 128	 0	 0	 1	-30	 30;
	 67	 152	 0.00366643	 0.00984308	 0.00223076	 118	 118	 118	 0	 0	 1	-30	 30;
	 69	 70	 0.00669315	 0.0155364	 0.000295823	 59	 59	 59	 0	 0	 1	-30	 30;
	 70	 71	 0.00794724	 0.0213355	 0.000302206	 59	 59	 59	 0	 0	 1	-30	 30;
	 70	 299	 0.0114453	 0.0265674	 0.000505861	 59	 59	 59	 0	 0	 1	-30	 30;
	 72	 73	 0.00149537	 0.0045008	 0.00140805	 142	 142	 142	 0	 0	 1	-30	 30;
	 72	 107	 0.00237435	 0.0064643	 0.00142415	 118	 118	 118	 0	 0	 1	-30	 30;
	 72	 342	 0.00308107	 0.0156776	 0.00568372	 205	 205	 205	 0	 0	 1	-30	 30;
	 73	 74	 0.00174593	 0.00452487	 0.00136887	 128	 128	 128	 0	 0	 1	-30	 30;
	 74	 77	 0.00723043	 0.0181756	 0.00470872	 118	 118	 118	 0	 0	 1	-30	 30;
	 75	 80	 0.0110298	 0.027726	 0.000448926	 59	 59	 59	 0	 0	 1	-30	 30;
	 75	 341	 0.0313013	 0.0786845	 0.00127404	 59	 59	 59	 0	 0	 1	-30	 30;
	 76	 300	 0.0106664	 0.0306224	 0.000378593	 59	 59	 59	 0	 0	 1	-30	 30;
	 77	 104	 0.00208892	 0.00862458	 0.00204051	 159	 159	 159	 0	 0	 1	-30	 30;
	 78	 81	 0.001749	 0.00405986	 0.00123684	 118	 118	 118	 0	 0	 1	-30	 30;
	 78	 100	 0.00422827	 0.0113514	 0.00257261	 118	 118	 118	 0	 0	 1	-30	 30;
	 79	 82	 0.0141593	 0.0328674	 0.000625817	 59	 59	 59	 0	 0	 1	-30	 30;
	 79	 91	 0.0096191	 0.0261885	 0.000360599	 59	 59	 59	 0	 0	 1	-30	 30;
	 79	 310	 0.0104094	 0.0241628	 0.000460076	 59	 59	 59	 0	 0	 1	-30	 30;
	 80	 82	 0.00697457	 0.0161897	 0.000308262	 59	 59	 59	 0	 0	 1	-30	 30;
	 80	 302	 0.00601513	 0.0139626	 0.000265856	 59	 59	 59	 0	 0	 1	-30	 30;
	 82	 83	 0.0109591	 0.0254389	 0.000484373	 59	 59	 59	 0	 0	 1	-30	 30;
	 84	 87	 0.00275261	 0.00713387	 0.00215815	 128	 128	 128	 0	 0	 1	-30	 30;
	 84	 107	 0.00499182	 0.0134013	 0.00303719	 118	 118	 118	 0	 0	 1	-30	 30;
	 84	 314	 0.00190071	 0.00908381	 0.0031811	 193	 193	 193	 0	 0	 1	-30	 30;
	 85	 86	 0.00874725	 0.0238148	 0.000327915	 59	 59	 59	 0	 0	 1	-30	 30;
	 85	 89	 0.0170867	 0.0396625	 0.000755203	 59	 59	 59	 0	 0	 1	-30	 30;
	 85	 92	 0.0103103	 0.0239327	 0.000455693	 59	 59	 59	 0	 0	 1	-30	 30;
	 86	 96	 0.00562434	 0.016147	 0.000199629	 59	 59	 59	 0	 0	 1	-30	 30;
	 87	 90	 0.00274976	 0.00706853	 0.0017503	 118	 118	 118	 0	 0	 1	-30	 30;
	 88	 128	 0.0135106	 0.0313632	 0.00955542	 118	 118	 118	 0	 0	 1	-30	 30;
	 88	 129	 0.00557502	 0.0129411	 0.00394254	 118	 118	 118	 0	 0	 1	-30	 30;
	 91	 98	 0.0155459	 0.036086	 0.000687102	 59	 59	 59	 0	 0	 1	-30	 30;
	 92	 306	 0.00794407	 0.0184401	 0.000351111	 59	 59	 59	 0	 0	 1	-30	 30;
	 93	 94	 0.00775394	 0.0179988	 0.000342708	 59	 59	 59	 0	 0	 1	-30	 30;
	 93	 96	 0.00630345	 0.0146318	 0.000278599	 59	 59	 59	 0	 0	 1	-30	 30;
	 94	 307	 0.0122367	 0.0284044	 0.000540839	 59	 59	 59	 0	 0	 1	-30	 30;
	 95	 97	 0.00226456	 0.0056925	 0.00147472	 118	 118	 118	 0	 0	 1	-30	 30;
	 95	 130	 0.00688866	 0.0184938	 0.00419135	 118	 118	 118	 0	 0	 1	-30	 30;
	 97	 327	 0.00269813	 0.0073458	 0.00161835	 118	 118	 118	 0	 0	 1	-30	 30;
	 98	 309	 0.011614	 0.0316198	 0.000435384	 59	 59	 59	 0	 0	 1	-30	 30;
	 99	 100	 0.00202041	 0.00550068	 0.00121185	 118	 118	 118	 0	 0	 1	-30	 30;
	 99	 327	 0.00288883	 0.00742602	 0.00183882	 118	 118	 118	 0	 0	 1	-30	 30;
	 100	 101	 0.00200333	 0.00537822	 0.00121888	 118	 118	 118	 0	 0	 1	-30	 30;
	 102	 312	 0.0109273	 0.0253649	 0.000482963	 59	 59	 59	 0	 0	 1	-30	 30;
	 103	 133	 0.00110131	 0.00758624	 0.0133918	 366	 366	 366	 0	 0	 1	-30	 30;
	 103	 142	 0.000517023	 0.00362525	 0.0061718	 366	 366	 366	 0	 0	 1	-30	 30;
	 105	 116	 0.00565636	 0.0226363	 0.00764664	 175	 175	 175	 0	 0	 1	-30	 30;
	 105	 320	 0.00426904	 0.0354546	 0.0138702	 284	 284	 284	 0	 0	 1	-30	 30;
	 106	 313	 0.00611342	 0.0164123	 0.000232472	 59	 59	 59	 0	 0	 1	-30	 30;
	 108	 153	 0.00909542	 0.0211127	 0.000401999	 59	 59	 59	 0	 0	 1	-30	 30;
	 108	 315	 0.0114532	 0.0307478	 0.000435527	 59	 59	 59	 0	 0	 1	-30	 30;
	 109	 155	 0.00512231	 0.0118901	 0.000226395	 59	 59	 59	 0	 0	 1	-30	 30;
	 110	 113	 0.00683891	 0.0171912	 0.00027835	 59	 59	 59	 0	 0	 1	-30	 30;
	 110	 114	 0.00957069	 0.0246024	 0.00038075	 59	 59	 59	 0	 0	 1	-30	 30;
	 110	 315	 0.0149168	 0.0346256	 0.000659295	 59	 59	 59	 0	 0	 1	-30	 30;
	 111	 112	 0.000344391	 0.00229672	 0.00432857	 366	 366	 366	 0	 0	 1	-30	 30;
	 111	 133	 0.00268789	 0.0185168	 0.0326911	 366	 366	 366	 0	 0	 1	-30	 30;
	 112	 115	 0.000504747	 0.00319688	 0.00669473	 366	 366	 366	 0	 0	 1	-30	 30;
	 112	 154	 0.000712911	 0.0049988	 0.00851022	 366	 366	 366	 0	 0	 1	-30	 30;
	 113	 114	 0.00579652	 0.0155616	 0.000220422	 59	 59	 59	 0	 0	 1	-30	 30;
	 114	 316	 0.00815215	 0.0288148	 0.0004058	 71	 71	 71	 0	 0	 1	-30	 30;
	 114	 343	 0.014661	 0.0368539	 0.00059672	 59	 59	 59	 0	 0	 1	-30	 30;
	 115	 117	 0.000950422	 0.00654682	 0.0115568	 366	 366	 366	 0	 0	 1	-30	 30;
	 116	 318	 0.00180033	 0.00852049	 0.00204877	 175	 175	 175	 0	 0	 1	-30	 30;
	 117	 118	 0.000456157	 0.0043795	 0.00982973	 473	 473	 473	 0	 0	 1	-30	 30;
	 118	 319	 0.00103167	 0.0126922	 0.0236396	 528	 528	 528	 0	 0	 1	-30	 30;
	 121	 322	 0.0356946	 0.107439	 0.00210084	 71	 71	 71	 0	 0	 1	-30	 30;
	 121	 323	 0.086632	 0.201124	 0.00383017	 59	 59	 59	 0	 0	 1	-30	 30;
	 122	 158	 0.0298136	 0.0692247	 0.021096	 118	 118	 118	 0	 0	 1	-30	 30;
	 122	 174	 0.0313059	 0.0942739	 0.0295121	 142	 142	 142	 0	 0	 1	-30	 30;
	 123	 126	 0.0301333	 0.0699479	 0.00133188	 59	 59	 59	 0	 0	 1	-30	 30;
	 125	 127	 0.0202026	 0.0469012	 0.0142905	 118	 118	 118	 0	 0	 1	-30	 30;
	 127	 173	 0.0209824	 0.0539445	 0.0133598	 118	 118	 118	 0	 0	 1	-30	 30;
	 128	 129	 0.00816764	 0.0189595	 0.00577613	 118	 118	 118	 0	 0	 1	-30	 30;
	 128	 135	 0.0107753	 0.0438509	 0.0106847	 159	 159	 159	 0	 0	 1	-30	 30;
	 129	 130	 0.00658042	 0.0179158	 0.00394707	 118	 118	 118	 0	 0	 1	-30	 30;
	 130	 131	 0.00378058	 0.00877568	 0.00267352	 118	 118	 118	 0	 0	 1	-30	 30;
	 131	 326	 0.00439918	 0.0114013	 0.00344915	 128	 128	 128	 0	 0	 1	-30	 30;
	 132	 133	 0.000547609	 0.00383972	 0.00653692	 366	 366	 366	 0	 0	 1	-30	 30;
	 132	 134	 0.000715035	 0.00485086	 0.00883146	 366	 366	 366	 0	 0	 1	-30	 30;
	 134	 143	 0.00170224	 0.0110493	 0.0220089	 366	 366	 366	 0	 0	 1	-30	 30;
	 134	 330	 0.0013814	 0.0144647	 0.0272117	 473	 473	 473	 0	 0	 1	-30	 30;
	 135	 232	 0.0117788	 0.0447758	 0.0125355	 159	 159	 159	 0	 0	 1	-30	 30;
	 136	 137	 0.000311228	 0.0022825	 0.0792018	 795	 795	 795	 0	 0	 1	-30	 30;
	 138	 372	 0.0780472	 0.223881	 0.00344353	 64	 64	 64	 0	 0	 1	-30	 30;
	 139	 140	 0.00459065	 0.0160628	 0.00532313	 159	 159	 159	 0	 0	 1	-30	 30;
	 139	 151	 0.00657263	 0.030326	 0.00572604	 159	 159	 159	 0	 0	 1	-30	 30;
	 139	 337	 0.0148762	 0.0385575	 0.0116656	 128	 128	 128	 0	 0	 1	-30	 30;
	 141	 335	 0.00713482	 0.0191547	 0.00434115	 118	 118	 118	 0	 0	 1	-30	 30;
	 142	 144	 0.00038474	 0.00265019	 0.00467819	 366	 366	 366	 0	 0	 1	-30	 30;
	 143	 144	 0.000684207	 0.00471301	 0.0083196	 366	 366	 366	 0	 0	 1	-30	 30;
	 143	 146	 0.000652948	 0.00457834	 0.00779441	 366	 366	 366	 0	 0	 1	-30	 30;
	 145	 337	 0.00704373	 0.0163505	 0.00498125	 118	 118	 118	 0	 0	 1	-30	 30;
	 146	 147	 0.000898097	 0.00629732	 0.010721	 366	 366	 366	 0	 0	 1	-30	 30;
	 149	 253	 0.188883	 0.438762	 0.008361	 59	 59	 59	 0	 0	 1	-30	 30;
	 149	 340	 0.0162086	 0.0965577	 0.00158767	 103	 103	 103	 0	 0	 1	-30	 30;
	 150	 156	 0.0386762	 0.154788	 0.00326827	 88	 88	 88	 0	 0	 1	-30	 30;
	 150	 340	 0.0215133	 0.109471	 0.00248057	 103	 103	 103	 0	 0	 1	-30	 30;
	 153	 343	 0.00578332	 0.0134245	 0.000255611	 59	 59	 59	 0	 0	 1	-30	 30;
	 158	 178	 0.0272985	 0.112768	 0.0266992	 159	 159	 159	 0	 0	 1	-30	 30;
	 159	 160	 0.00793163	 0.0212936	 0.000301613	 59	 59	 59	 0	 0	 1	-30	 30;
	 159	 161	 0.012027	 0.0322882	 0.000457346	 59	 59	 59	 0	 0	 1	-30	 30;
	 159	 162	 0.0122216	 0.0283695	 0.000540173	 59	 59	 59	 0	 0	 1	-30	 30;
	 159	 172	 0.0121737	 0.0282582	 0.000538055	 59	 59	 59	 0	 0	 1	-30	 30;
	 159	 346	 0.0116653	 0.0293236	 0.000474792	 59	 59	 59	 0	 0	 1	-30	 30;
	 159	 349	 0.0152544	 0.0459135	 0.000897746	 71	 71	 71	 0	 0	 1	-30	 30;
	 162	 347	 0.0266599	 0.061885	 0.00117835	 59	 59	 59	 0	 0	 1	-30	 30;
	 163	 164	 0.0028425	 0.00659815	 0.00201013	 118	 118	 118	 0	 0	 1	-30	 30;
	 163	 165	 0.00264828	 0.0079709	 0.00249367	 142	 142	 142	 0	 0	 1	-30	 30;
	 163	 170	 0.00879059	 0.0220977	 0.00572485	 118	 118	 118	 0	 0	 1	-30	 30;
	 164	 260	 0.0079063	 0.0183528	 0.0055913	 118	 118	 118	 0	 0	 1	-30	 30;
	 165	 348	 0.00242831	 0.00846277	 0.00196227	 142	 142	 142	 0	 0	 1	-30	 30;
	 166	 349	 0.0107878	 0.0271177	 0.000439076	 59	 59	 59	 0	 0	 1	-30	 30;
	 168	 169	 0.0390666	 0.0982057	 0.00159015	 59	 59	 59	 0	 0	 1	-30	 30;
...
];

mpc_regionR1.gencost = [
%	2           startup     shutdown    n           c(n-1)...c0 
	 2	 0	 0	 3	 0.007322	 3.511	-2.461;
	 2	 0	 0	 3	 0	 58.29	-640.4;
	 2	 0	 0	 3	 0	 56.28	-640.4;
	 2	 0	 0	 3	 0.03226	 49.44	-4.867;
	 2	 0	 0	 3	 0.03228	 48.31	-4.253;
	 2	 0	 0	 3	 0.003172	 3.484	-2.757;
	 2	 0	 0	 3	 0	 22.44	-54.68;
	 2	 0	 0	 3	 0	 31.26	-107.2;
	 2	 0	 0	 3	 0	 18.27	-27.07;
	 2	 0	 0	 3	 0.00283	 26.93	 0;
	 2	 0	 0	 3	 0.03223	 11.19	-6.842;
	 2	 0	 0	 3	 0.03223	 10.82	-6.842;
	 2	 0	 0	 3	 0.03223	 12.49	-6.842;
	 2	 0	 0	 3	 0.001961	 10.37	 0;
	 2	 0	 0	 3	 0.001961	 11.36	 0;
];


% -------------------- mpc_regionR2 --------------------

mpc_regionR2.version = '2';
mpc_regionR2.baseMVA = 100.0000;
mpc_regionR2.bus = [
%	bus_i       type        Pd          Qd          Gs          Bs          area        Vm          Va          baseKV      zone        Vmax        Vmin        
	 1	 1	 0	 0	 0	 0	 1	 1	 0	 230	 1	 1.1	 0.9;
	 2	 1	 0	 0	 0	 0	 1	 1	 0	 230	 1	 1.1	 0.9;
	 3	 2	 0	 0	 0	 0	 1	 1	 0	 138	 1	 1.1	 0.9;
	 4	 2	 0	 0	 0	 0	 1	 1	 0	 230	 1	 1.1	 0.9;
	 5	 1	 0	 0	 0	 0	 1	 1	 0	 138	 1	 1.1	 0.9;
	 6	 1	 0	 0	 0	 0	 1	 1	 0	 230	 1	 1.1	 0.9;
	 7	 1	 0	 0	 0	 0	 1	 1	 0	 138	 1	 1.1	 0.9;
	 8	 2	 0	 0	 0	 0	 1	 1	 0	 138	 1	 1.1	 0.9;
	 9	 1	 0	 0	 0	 0	 1	 1	 0	 69	 1	 1.1	 0.9;
	 10	 2	 0	 0	 0	 0	 1	 1	 0	 138	 1	 1.1	 0.9;
	 11	 1	 0	 0	 0	 0	 1	 1	 0	 138	 1	 1.1	 0.9;
	 12	 1	 0	 0	 0	 0	 1	 1	 0	 138	 1	 1.1	 0.9;
	 13	 1	 3.07	 0.52	 0	 0	 1	 1	 0	 69	 1	 1.1	 0.9;
	 14	 1	 31.74	 5	 0	 0	 1	 1	 0	 69	 1	 1.1	 0.9;
	 15	 1	 29.59	 5	 0	 0	 1	 1	 0	 69	 1	 1.1	 0.9;
	 16	 1	 0	 0	 0	 9.99998975922	 1	 1	 0	 138	 1	 1.1	 0.9;
	 17	 1	 10.69	 0	 0	 0	 1	 1	 0	 69	 1	 1.1	 0.9;
	 18	 1	 8.54	 0	 0	 0	 1	 1	 0	 69	 1	 1.1	 0.9;
	 19	 1	 4.82	 0	 0	 0	 1	 1	 0	 69	 1	 1.1	 0.9;
	 20	 1	 5.47	 0.88	 0	 0	 1	 1	 0	 69	 1	 1.1	 0.9;
	 21	 1	 0	 0	 0	 0	 1	 1	 0	 230	 1	 1.1	 0.9;
	 22	 1	 0	 0	 0	 0	 1	 1	 0	 230	 1	 1.1	 0.9;
	 23	 1	 17.37	 1.86	 0	 0	 1	 1	 0	 69	 1	 1.1	 0.9;
	 24	 1	 16.44	 1.73	 0	 0	 1	 1	 0	 69	 1	 1.1	 0.9;
	 25	 1	 12.84	 1.58	 0	 0	 1	 1	 0	 69	 1	 1.1	 0.9;
	 26	 1	 11.22	 0	 0	 0	 1	 1	 0	 138	 1	 1.1	 0.9;
	 27	 1	 25.8	 2.92	 0	 0	 1	 1	 0	 69	 1	 1.1	 0.9;
	 28	 1	 26.98	 3.19	 0	 0	 1	 1	 0	 69	 1	 1.1	 0.9;
	 29	 1	 0	 0	 0	 0	 1	 1	 0	 138	 1	 1.1	 0.9;
	 30	 1	 0	 0	 0	 0	 1	 1	 0	 138	 1	 1.1	 0.9;
	 31	 1	 9.95	 0	 0	 0	 1	 1	 0	 69	 1	 1.1	 0.9;
	 32	 1	 3.87	 0	 0	 0	 1	 1	 0	 69	 1	 1.1	 0.9;
	 33	 1	 0	 0	 0	 0	 1	 1	 0	 230	 1	 1.1	 0.9;
	 34	 1	 0	 0	 0	 0	 1	 1	 0	 138	 1	 1.1	 0.9;
	 35	 1	 8.31	 0	 0	 0	 1	 1	 0	 69	 1	 1.1	 0.9;
	 36	 1	 8.43	 0	 0	 0	 1	 1	 0	 69	 1	 1.1	 0.9;
	 37	 1	 16.34	 0	 0	 0	 1	 1	 0	 69	 1	 1.1	 0.9;
	 38	 1	 0	 0	 0	 0	 1	 1	 0	 138	 1	 1.1	 0.9;
	 39	 1	 5.09	 0	 0	 0	 1	 1	 0	 69	 1	 1.1	 0.9;
	 40	 1	 0	 0	 0	 0	 1	 1	 0	 138	 1	 1.1	 0.9;
	 41	 1	 6.28	 0.71	 0	 0	 1	 1	 0	 69	 1	 1.1	 0.9;
	 42	 1	 44.32	 0	 0	 0	 1	 1	 0	 69	 1	 1.1	 0.9;
	 43	 1	 13.56	 2.15	 0	 0	 1	 1	 0	 69	 1	 1.1	 0.9;
	 44	 1	 10.45	 1.21	 0	 0	 1	 1	 0	 69	 1	 1.1	 0.9;
	 45	 1	 5.3	 0.75	 0	 0	 1	 1	 0	 69	 1	 1.1	 0.9;
	 46	 1	 7.75	 1.09	 0	 0	 1	 1	 0	 69	 1	 1.1	 0.9;
	 47	 1	 6.58	 0.76	 0	 0	 1	 1	 0	 69	 1	 1.1	 0.9;
	 48	 1	 10.54	 1.51	 0	 0	 1	 1	 0	 69	 1	 1.1	 0.9;
	 49	 1	 0	 0	 0	 0	 1	 1	 0	 138	 1	 1.1	 0.9;
	 50	 1	 0	 0	 0	 0	 1	 1	 0	 138	 1	 1.1	 0.9;
	 51	 1	 0	 0	 0	 0	 1	 1	 0	 138	 1	 1.1	 0.9;
	 52	 1	 0	 0	 0	 0	 1	 1	 0	 138	 1	 1.1	 0.9;
	 53	 1	 3.6	 0.57	 0	 0	 1	 1	 0	 138	 1	 1.1	 0.9;
	 54	 1	 12.88	 1.43	 0	 0	 1	 1	 0	 69	 1	 1.1	 0.9;
	 55	 1	 14.92	 2.32	 0	 0	 1	 1	 0	 69	 1	 1.1	 0.9;
	 56	 1	 0	 0	 0	 0	 1	 1	 0	 138	 1	 1.1	 0.9;
	 57	 1	 6.05	 0.86	 0	 0	 1	 1	 0	 69	 1	 1.1	 0.9;
	 58	 1	 10.54	 1.15	 0	 0	 1	 1	 0	 138	 1	 1.1	 0.9;
	 59	 1	 0	 0	 0	 0	 1	 1	 0	 138	 1	 1.1	 0.9;
	 60	 1	 5.49	 0.78	 0	 0	 1	 1	 0	 69	 1	 1.1	 0.9;
	 61	 1	 0	 0	 0	 0	 1	 1	 0	 138	 1	 1.1	 0.9;
	 62	 1	 0	 0	 0	 0	 1	 1	 0	 138	 1	 1.1	 0.9;
	 63	 1	 0	 0	 0	 0	 1	 1	 0	 138	 1	 1.1	 0.9;
	 64	 1	 4.39	 0.61	 0	 0	 1	 1	 0	 69	 1	 1.1	 0.9;
	 65	 1	 0	 0	 0	 0	 1	 1	 0	 138	 1	 1.1	 0.9;
	 66	 1	 10.79	 1.73	 0	 0	 1	 1	 0	 69	 1	 1.1	 0.9;
	 67	 1	 32.11	 3.94	 0	 0	 1	 1	 0	 138	 1	 1.1	 0.9;
	 68	 1	 0	 0	 0	 0	 1	 1	 0	 138	 1	 1.1	 0.9;
	 69	 1	 3.39	 0.48	 0	 0	 1	 1	 0	 69	 1	 1.1	 0.9;
	 70	 1	 0	 0	 0	 0	 1	 1	 0	 138	 1	 1.1	 0.9;
	 71	 1	 7.37	 0.85	 0	 0	 1	 1	 0	 69	 1	 1.1	 0.9;
	 72	 1	 10.33	 1.44	 0	 0	 1	 1	 0	 69	 1	 1.1	 0.9;
	 73	 1	 6.88	 0.97	 0	 0	 1	 1	 0	 69	 1	 1.1	 0.9;
	 74	 1	 5.11	 0.59	 0	 0	 1	 1	 0	 69	 1	 1.1	 0.9;
	 75	 1	 5.26	 0.57	 0	 0	 1	 1	 0	 69	 1	 1.1	 0.9;
	 76	 1	 13.45	 2.12	 0	 0	 1	 1	 0	 69	 1	 1.1	 0.9;
	 77	 1	 0	 0	 0	 0	 1	 1	 0	 138	 1	 1.1	 0.9;
	 78	 1	 17.54	 1.95	 0	 0	 1	 1	 0	 69	 1	 1.1	 0.9;
	 79	 1	 13.41	 2.16	 0	 0	 1	 1	 0	 69	 1	 1.1	 0.9;
	 80	 1	 33.4	 5.19	 0	 0	 1	 1	 0	 69	 1	 1.1	 0.9;
	 81	 1	 6.77	 1.08	 0	 0	 1	 1	 0	 69	 1	 1.1	 0.9;
	 82	 1	 10.73	 1.16	 0	 0	 1	 1	 0	 69	 1	 1.1	 0.9;
	 83	 1	 7.9	 0.92	 0	 0	 1	 1	 0	 69	 1	 1.1	 0.9;
	 84	 1	 21.67	 2.26	 0	 0	 1	 1	 0	 69	 1	 1.1	 0.9;
	 85	 1	 0	 0	 0	 0	 1	 1	 0	 138	 1	 1.1	 0.9;
	 86	 1	 19.88	 2.22	 0	 0	 1	 1	 0	 138	 1	 1.1	 0.9;
	 87	 1	 23.8	 2.54	 0	 0	 1	 1	 0	 69	 1	 1.1	 0.9;
	 88	 1	 2.79	 0.4	 0	 0	 1	 1	 0	 69	 1	 1.1	 0.9;
	 89	 1	 6.51	 0.75	 0	 0	 1	 1	 0	 69	 1	 1.1	 0.9;
	 90	 1	 6.94	 0.81	 0	 0	 1	 1	 0	 69	 1	 1.1	 0.9;
	 91	 1	 8.22	 0.87	 0	 0	 1	 1	 0	 69	 1	 1.1	 0.9;
	 92	 1	 6.41	 0.81	 0	 0	 1	 1	 0	 69	 1	 1.1	 0.9;
	 93	 1	 10.33	 1.3	 0	 0	 1	 1	 0	 69	 1	 1.1	 0.9;
	 94	 1	 5.94	 0.73	 0	 0	 1	 1	 0	 69	 1	 1.1	 0.9;
	 95	 1	 14.6	 1.7	 0	 0	 1	 1	 0	 69	 1	 1.1	 0.9;
	 96	 1	 9.41	 1.52	 0	 0	 1	 1	 0	 69	 1	 1.1	 0.9;
	 97	 1	 0	 0	 0	 0	 1	 1	 0	 138	 1	 1.1	 0.9;
	 98	 1	 9.05	 0.98	 0	 0	 1	 1	 0	 69	 1	 1.1	 0.9;
	 99	 1	 4.92	 0.57	 0	 0	 1	 1	 0	 69	 1	 1.1	 0.9;
	 100	 1	 17.2	 1.81	 0	 0	 1	 1	 0	 69	 1	 1.1	 0.9;
	 101	 1	 0	 0	 0	 0	 1	 1	 0	 230	 1	 1.1	 0.9;
	 102	 1	 5.73	 0.6	 0	 0	 1	 1	 0	 69	 1	 1.1	 0.9;
	 103	 1	 0	 0	 0	 0	 1	 1	 0	 138	 1	 1.1	 0.9;
	 104	 1	 11.56	 1.23	 0	 0	 1	 1	 0	 69	 1	 1.1	 0.9;
	 105	 1	 4.45	 0.5	 0	 0	 1	 1	 0	 69	 1	 1.1	 0.9;
	 106	 1	 8.33	 1.32	 0	 0	 1	 1	 0	 69	 1	 1.1	 0.9;
	 107	 1	 17.63	 1.94	 0	 0	 1	 1	 0	 69	 1	 1.1	 0.9;
	 108	 1	 14.75	 1.58	 0	 0	 1	 1	 0	 69	 1	 1.1	 0.9;
	 109	 1	 16.22	 1.86	 0	 0	 1	 1	 0	 69	 1	 1.1	 0.9;
	 110	 1	 4.19	 0.45	 0	 0	 1	 1	 0	 69	 1	 1.1	 0.9;
	 111	 1	 11.14	 1.39	 0	 0	 1	 1	 0	 138	 1	 1.1	 0.9;
	 112	 1	 14.96	 0	 0	 0	 1	 1	 0	 69	 1	 1.1	 0.9;
	 113	 1	 9.87	 0	 0	 0	 1	 1	 0	 69	 1	 1.1	 0.9;
	 114	 1	 0	 0	 0	 0	 1	 1	 0	 138	 1	 1.1	 0.9;
	 115	 1	 0	 0	 0	 0	 1	 1	 0	 138	 1	 1.1	 0.9;
	 116	 1	 6.9	 0.79	 0	 0	 1	 1	 0	 69	 1	 1.1	 0.9;
	 117	 1	 7.72	 0	 0	 0	 1	 1	 0	 69	 1	 1.1	 0.9;
	 118	 1	 3.51	 0	 0	 0	 1	 1	 0	 69	 1	 1.1	 0.9;
	 119	 1	 3.97	 0	 0	 0	 1	 1	 0	 69	 1	 1.1	 0.9;
	 120	 1	 0	 0	 0	 0	 1	 1	 0	 138	 1	 1.1	 0.9;
	 121	 1	 6.36	 0	 0	 0	 1	 1	 0	 69	 1	 1.1	 0.9;
	 122	 1	 4.44	 0	 0	 0	 1	 1	 0	 69	 1	 1.1	 0.9;
	 123	 1	 4.57	 0	 0	 0	 1	 1	 0	 69	 1	 1.1	 0.9;
	 124	 1	 0	 0	 0	 0	 1	 1	 0	 138	 1	 1.1	 0.9;
	 125	 1	 7.7	 0	 0	 0	 1	 1	 0	 138	 1	 1.1	 0.9;
	 126	 1	 11.53	 0	 0	 0	 1	 1	 0	 138	 1	 1.1	 0.9;
	 127	 1	 0	 0	 0	 0	 1	 1	 0	 138	 1	 1.1	 0.9;
	 128	 1	 0	 0	 0	 0	 1	 1	 0	 138	 1	 1.1	 0.9;
	 129	 1	 0	 0	 0	 0	 1	 1	 0	 138	 1	 1.1	 0.9;
	 130	 1	 9.31	 0	 0	 0	 1	 1	 0	 69	 1	 1.1	 0.9;
	 131	 1	 4.23	 0	 0	 0	 1	 1	 0	 138	 1	 1.1	 0.9;
	 132	 1	 15.35	 0	 0	 0	 1	 1	 0	 138	 1	 1.1	 0.9;
	 133	 1	 0.74	 0	 0	 0	 1	 1	 0	 138	 1	 1.1	 0.9;
	 134	 1	 7.88	 0	 0	 0	 1	 1	 0	 69	 1	 1.1	 0.9;
	 135	 1	 8.98	 0	 0	 0	 1	 1	 0	 138	 1	 1.1	 0.9;
	 136	 1	 18.43	 0	 0	 0	 1	 1	 0	 138	 1	 1.1	 0.9;
	 137	 1	 6.63	 0	 0	 0	 1	 1	 0	 138	 1	 1.1	 0.9;
	 138	 1	 0	 0	 0	 0	 1	 1	 0	 138	 1	 1.1	 0.9;
	 139	 1	 7.49	 0	 0	 0	 1	 1	 0	 138	 1	 1.1	 0.9;
	 140	 1	 4.41	 0	 0	 0	 1	 1	 0	 69	 1	 1.1	 0.9;
	 141	 1	 17.18	 1.9	 0	 0	 1	 1	 0	 230	 1	 1.1	 0.9;
	 142	 1	 13.86	 1.92	 0	 0	 1	 1	 0	 69	 1	 1.1	 0.9;
	 143	 1	 8.35	 1.18	 0	 0	 1	 1	 0	 138	 1	 1.1	 0.9;
	 144	 1	 0	 0	 0	 0	 1	 1	 0	 230	 1	 1.1	 0.9;
	 145	 1	 7.62	 1.23	 0	 0	 1	 1	 0	 69	 1	 1.1	 0.9;
	 146	 1	 11.18	 0	 0	 0	 1	 1	 0	 138	 1	 1.1	 0.9;
	 147	 1	 10.09	-20	 0	 0	 1	 1	 0	 69	 1	 1.1	 0.9;
	 148	 1	 9	-7	 0	 0	 1	 1	 0	 69	 1	 1.1	 0.9;
	 149	 1	 0	 0	 0	 0	 1	 1	 0	 138	 1	 1.1	 0.9;
	 150	 1	 0	 0	 0	 0	 1	 1	 0	 138	 1	 1.1	 0.9;
	 151	 1	 0	 0	 0	 0	 1	 1	 0	 138	 1	 1.1	 0.9;
	 152	 1	 0	 0	 0	 0	 1	 1	 0	 230	 1	 1.1	 0.9;
	 153	 1	 4.53	 0.51	 0	 0	 1	 1	 0	 69	 1	 1.1	 0.9;
	 154	 1	 12.86	 2.01	 0	 0	 1	 1	 0	 69	 1	 1.1	 0.9;
	 155	 1	 0	 0	 0	 0	 1	 1	 0	 138	 1	 1.1	 0.9;
	 156	 1	 4.75	 0.66	 0	 0	 1	 1	 0	 69	 1	 1.1	 0.9;
	 157	 1	 8.6	 1.41	 0	 0	 1	 1	 0	 69	 1	 1.1	 0.9;
	 158	 1	 0	 0	 0	 0	 1	 1	 0	 138	 1	 1.1	 0.9;
	 159	 1	 8.28	 1.32	 0	 0	 1	 1	 0	 69	 1	 1.1	 0.9;
	 160	 1	 0	 0	 0	 0	 1	 1	 0	 138	 1	 1.1	 0.9;
	 161	 1	 0	 0	 0	 0	 1	 1	 0	 230	 1	 1.1	 0.9;
	 162	 1	 5.62	 0.63	 0	 0	 1	 1	 0	 69	 1	 1.1	 0.9;
	 163	 1	 15.58	 1.74	 0	 0	 1	 1	 0	 69	 1	 1.1	 0.9;
	 164	 1	 9.37	 1.32	 0	 0	 1	 1	 0	 69	 1	 1.1	 0.9;
	 165	 1	 40.35	 4.92	 0	 0	 1	 1	 0	 138	 1	 1.1	 0.9;
	 166	 1	 56.06	 6.75	 0	 0	 1	 1	 0	 230	 1	 1.1	 0.9;
	 167	 1	 18.44	 2.13	 0	 0	 1	 1	 0	 69	 1	 1.1	 0.9;
	 168	 1	 0	 0	 0	 0	 1	 1	 0	 230	 1	 1.1	 0.9;
	 169	 1	 2.17	 0.3	 0	 0	 1	 1	 0	 69	 1	 1.1	 0.9;
	 170	 1	 3.9	 0.41	 0	 0	 1	 1	 0	 138	 1	 1.1	 0.9;
	 171	 1	 14.6	 1.67	 0	 0	 1	 1	 0	 230	 1	 1.1	 0.9;
	 172	 1	 7.9	 1.09	 0	 0	 1	 1	 0	 230	 1	 1.1	 0.9;
	 173	 1	 12.58	 0	 0	 0	 1	 1	 0	 69	 1	 1.1	 0.9;
	 174	 1	 5.04	 0	 0	 0	 1	 1	 0	 138	 1	 1.1	 0.9;
	 175	 1	 6.6	 0	 0	 0	 1	 1	 0	 138	 1	 1.1	 0.9;
	 176	 1	 0	 0	 0	 0	 1	 1	 0	 138	 1	 1.1	 0.9;
	 177	 1	 0	 0	 0	 0	 1	 1	 0	 138	 1	 1.1	 0.9;
	 178	 1	 4.83	 0	 0	 0	 1	 1	 0	 69	 1	 1.1	 0.9;
	 179	 1	 8.37	 1.19	 0	 0	 1	 1	 0	 138	 1	 1.1	 0.9;
	 180	 1	 12.43	 1.39	 0	 0	 1	 1	 0	 138	 1	 1.1	 0.9;
	 181	 1	 0	 0	 0	 0	 1	 1	 0	 138	 1	 1.1	 0.9;
	 182	 1	 0	 0	 0	 0	 1	 1	 0	 138	 1	 1.1	 0.9;
	 183	 1	 9.94	 1.24	 0	 0	 1	 1	 0	 138	 1	 1.1	 0.9;
	 184	 1	 14.82	 1.67	 0	 0	 1	 1	 0	 138	 1	 1.1	 0.9;
	 185	 1	 0	 0	 0	 0	 1	 1	 0	 138	 1	 1.1	 0.9;
	 186	 1	 4.11	 0	 0	 0	 1	 1	 0	 69	 1	 1.1	 0.9;
	 187	 1	 0	 0	 0	 0	 1	 1	 0	 138	 1	 1.1	 0.9;
	 188	 1	 8.04	 0	 0	 0	 1	 1	 0	 69	 1	 1.1	 0.9;
	 189	 1	 11.13	 0	 0	 0	 1	 1	 0	 69	 1	 1.1	 0.9;
	 190	 1	 0	 0	 0	 29.9999883096	 1	 1	 0	 138	 1	 1.1	 0.9;
	 191	 1	 5.5	 0	 0	 0	 1	 1	 0	 69	 1	 1.1	 0.9;
	 192	 1	 25.09	 0	 0	 0	 1	 1	 0	 69	 1	 1.1	 0.9;
	 193	 1	 8.45	 0	 0	 0	 1	 1	 0	 138	 1	 1.1	 0.9;
	 194	 1	 7.92	 0	 0	 0	 1	 1	 0	 138	 1	 1.1	 0.9;
	 195	 1	 6.9	 0	 0	 0	 1	 1	 0	 69	 1	 1.1	 0.9;
	 196	 1	 6.07	 0	 0	 0	 1	 1	 0	 69	 1	 1.1	 0.9;
	 197	 1	 0	 0	 0	 0	 1	 1	 0	 138	 1	 1.1	 0.9;
	 198	 1	 0	 0	 0	 0	 1	 1	 0	 138	 1	 1.1	 0.9;
	 199	 1	 0	 0	 0	 0	 1	 1	 0	 138	 1	 1.1	 0.9;
	 200	 1	 4.82	 0	 0	 0	 1	 1	 0	 69	 1	 1.1	 0.9;
...
];

mpc_regionR2.gen = [
%	bus         Pg          Qg          Qmax        Qmin        Vg          mBase       status      Pmax        Pmin        Pc1         Pc2         Qc1min      Qc1max      Qc2min      Qc2max      ramp_agc    ramp_10     ramp_30     ramp_q      apf         
	 3	 146.5	 0	 124	-124	 1	 100	 1	 248	 45;
	 3	 246.5	 0	 224	-224	 1	 100	 1	 448	 45;
	 3	 432.5	 0	 403	-403	 1	 100	 1	 805	 60;
	 4	 220.75	 0	 197	-197	 1	 100	 1	 394	 47.5;
	 4	 246.25	 0	 223	-223	 1	 100	 1	 445	 47.5;
	 8	 71	 0	 65	-65	 1	 100	 1	 130	 12;
	 8	 81	 0	 75	-75	 1	 100	 1	 150	 12;
	 8	 145.5	 0	 140	-140	 1	 100	 1	 279	 12;
	 10	 134.25	 0	 133	-133	 1	 100	 1	 266	 2.5;
	 271	 470.5	 0	 423	-423	 1	 100	 1	 846	 95;
	 271	 554	 0	 507	-507	 1	 100	 1	 1013	 95;
	 276	 85.7025	 0	 81	-81	 1	 100	 1	 162	 9.405;
	 278	 77.5	 0	 69	-69	 1	 100	 1	 137	 18;
	 278	 108.5	 0	 100	-100	 1	 100	 1	 199	 18;
	 278	 103	 0	 94	-94	 1	 100	 1	 188	 18;
	 278	 88.75	 0	 76	-76	 1	 100	 1	 151	 26.5;
	 278	 122.25	 0	 109	-109	 1	 100	 1	 218	 26.5;
];

mpc_regionR2.branch = [
%	fbus        tbus        r           x           b           rateA       rateB       rateC       ratio       angle       status      angmin      angmax      
	 1	 33	 0.018415	 0.195233	 0.37403	 1373	 1373	 1373	 0	 0	 1	-30	 30;
	 1	 101	 0.006299	 0.098812	 0.206722	 1340	 1340	 1340	 0	 0	 1	-30	 30;
	 1	 256	 0.00248	 0.024788	 0.05128	 1373	 1373	 1373	 0	 0	 1	-30	 30;
	 2	 166	 0.011696	 0.109704	 0.203376	 617.5	 617.5	 617.5	 0	 0	 1	-30	 30;
	 2	 256	 0.001505	 0.0163382	 0.0320525	 532	 532	 532	 0	 0	 1	-30	 30;
	 3	 49	 0.00116403	 0.0114066	 0.00357281	 293	 315	 315	 0	 0	 1	-30	 30;
	 3	 50	 0.004835	 0.0169178	 0.00560649	 159	 159	 159	 0	 0	 1	-30	 30;
	 3	 51	 0.00171076	 0.0127124	 0.00484773	 261	 285	 285	 0	 0	 1	-30	 30;
	 4	 21	 0.00185053	 0.0129761	 0.0220925	 366	 366	 366	 0	 0	 1	-30	 30;
	 4	 22	 0.001659	 0.011196	 0.020615	 566	 566	 566	 0	 0	 1	-30	 30;
	 5	 138	 0.00990721	 0.0256772	 0.00776821	 128	 128	 128	 0	 0	 1	-30	 30;
	 5	 242	 0.0478711	 0.144258	 0.0451986	 142	 142	 142	 0	 0	 1	-30	 30;
	 5	 289	 0.0630452	 0.169463	 0.0384626	 118	 118	 118	 0	 0	 1	-30	 30;
	 6	 33	 0.00518544	 0.0353791	 0.0637366	 366	 366	 366	 0	 0	 1	-30	 30;
	 7	 245	 0.00596997	 0.0208893	 0.0069227	 159	 176	 176	 0	 0	 1	-30	 30;
	 7	 266	 0.031122	 0.09372	 0.029339	 238	 238	 238	 0	 0	 1	-30	 30;
	 8	 239	 0.0264055	 0.0613074	 0.0186819	 118	 118	 118	 0	 0	 1	-30	 30;
	 8	 241	 0.00778006	 0.0272234	 0.00902204	 164	 164	 164	 0	 0	 1	-30	 30;
	 9	 268	 0.0897178	 0.244299	 0.00336446	 59	 59	 59	 0	 0	 1	-30	 30;
	 9	 370	 0.0176634	 0.0474201	 0.000671685	 59	 59	 59	 0	 0	 1	-30	 30;
	 9	 371	 0.0031253	 0.00725457	 0.000138131	 59	 59	 59	 0	 0	 1	-30	 30;
	 10	 138	 0.00807827	 0.018752	 0.00571293	 118	 118	 118	 0	 0	 1	-30	 30;
	 10	 139	 0.00887565	 0.0309333	 0.00717286	 142	 142	 142	 0	 0	 1	-30	 30;
	 11	 111	 0.015235	 0.0353668	 0.0107754	 118	 118	 118	 0	 0	 1	-30	 30;
	 11	 114	 0.018118	 0.0420607	 0.0128153	 118	 118	 118	 0	 0	 1	-30	 30;
	 12	 115	 0.0315618	 0.110515	 0.0366583	 159	 159	 159	 0	 0	 1	-30	 30;
	 13	 14	 0.0136523	 0.0619747	 0.00134433	 95	 95	 95	 0	 0	 1	-30	 30;
	 13	 15	 0.00252878	 0.0192319	 0.000377701	 125	 132	 132	 0	 0	 1	-30	 30;
	 17	 18	 0.134304	 0.345363	 0.00534711	 59	 59	 59	 0	 0	 1	-30	 30;
	 17	 349	 0.105258	 0.244384	 0.00465438	 59	 59	 59	 0	 0	 1	-30	 30;
	 18	 19	 0.132668	 0.308065	 0.00586807	 59	 59	 59	 0	 0	 1	-30	 30;
	 19	 349	 0.180589	 0.419468	 0.00799279	 59	 59	 59	 0	 0	 1	-30	 30;
	 20	 285	 0.0708436	 0.192894	 0.00265632	 59	 59	 59	 0	 0	 1	-30	 30;
	 21	 172	 0.00424907	 0.0269189	 0.0563929	 366	 366	 366	 0	 0	 1	-30	 30;
	 23	 104	 0.0701988	 0.318787	 0.00691857	 95	 95	 95	 0	 0	 1	-30	 30;
	 24	 25	 0.0187355	 0.106503	 0.00192688	 103	 103	 103	 0	 0	 1	-30	 30;
	 25	 147	 0.125534	 0.641927	 0.0101075	 92	 92	 92	 0	 0	 1	-30	 30;
	 25	 314	 0.104645	 0.284961	 0.00392472	 59	 59	 59	 0	 0	 1	-30	 30;
	 26	 114	 0.0285595	 0.0718094	 0.0186087	 118	 118	 118	 0	 0	 1	-30	 30;
	 27	 28	 0.0481259	 0.111717	 0.00212727	 59	 59	 59	 0	 0	 1	-30	 30;
	 27	 312	 0.0876456	 0.235332	 0.00333394	 59	 59	 59	 0	 0	 1	-30	 30;
	 28	 236	 0.11564	 0.2685	 0.00511394	 59	 59	 59	 0	 0	 1	-30	 30;
	 28	 288	 0.0369391	 0.206112	 0.00329081	 96	 96	 96	 0	 0	 1	-30	 30;
	 29	 30	 0.0161299	 0.0666081	 0.0157629	 159	 159	 159	 0	 0	 1	-30	 30;
	 29	 252	 0.0434034	 0.152078	 0.0504884	 159	 159	 159	 0	 0	 1	-30	 30;
	 30	 103	 0.0415289	 0.113125	 0.0249384	 118	 118	 118	 0	 0	 1	-30	 30;
	 31	 320	 0.176931	 0.481996	 0.00664158	 59	 59	 59	 0	 0	 1	-30	 30;
	 32	 147	 0.094428	 0.257129	 0.00354123	 59	 59	 59	 0	 0	 1	-30	 30;
	 33	 101	 0.017363	 0.114823	 0.223574	 366	 366	 366	 0	 0	 1	-30	 30;
	 34	 132	 0.0235336	 0.0915883	 0.024475	 159	 159	 159	 0	 0	 1	-30	 30;
	 35	 238	 0.117032	 0.271735	 0.00517558	 59	 59	 59	 0	 0	 1	-30	 30;
	 36	 118	 0.0868237	 0.20157	 0.00383866	 59	 59	 59	 0	 0	 1	-30	 30;
	 37	 39	 0.0278599	 0.0758512	 0.00104444	 59	 59	 59	 0	 0	 1	-30	 30;
	 37	 292	 0.082679	 0.221993	 0.00314491	 59	 59	 59	 0	 0	 1	-30	 30;
	 37	 347	 0.131828	 0.306112	 0.00583083	 59	 59	 59	 0	 0	 1	-30	 30;
	 38	 133	 0.0116616	 0.0354135	 0.00775586	 128	 128	 128	 0	 0	 1	-30	 30;
	 38	 136	 0.0100279	 0.0296782	 0.00552064	 118	 124	 124	 0	 0	 1	-30	 30;
	 40	 149	 0.0203609	 0.0712638	 0.0236254	 159	 159	 159	 0	 0	 1	-30	 30;
	 41	 116	 0.143944	 0.392051	 0.00540088	 59	 59	 59	 0	 0	 1	-30	 30;
	 42	 192	 0.0629343	 0.320357	 0.0072628	 103	 103	 103	 0	 0	 1	-30	 30;
	 42	 294	 0.0308902	 0.209663	 0.00264708	 103	 103	 103	 0	 0	 1	-30	 30;
	 43	 44	 0.00990508	 0.0254619	 0.000394054	 59	 59	 59	 0	 0	 1	-30	 30;
	 43	 307	 0.00211923	 0.0193967	 0.000485471	 154	 154	 154	 0	 0	 1	-30	 30;
	 45	 46	 0.00504611	 0.013547	 0.000191886	 59	 59	 59	 0	 0	 1	-30	 30;
	 45	 47	 0.00767763	 0.0223153	 0.000269156	 59	 59	 59	 0	 0	 1	-30	 30;
	 46	 78	 0.0103871	 0.0282795	 0.00038939	 59	 59	 59	 0	 0	 1	-30	 30;
	 47	 299	 0.0108971	 0.029255	 0.000414382	 59	 59	 59	 0	 0	 1	-30	 30;
	 48	 55	 0.0122503	 0.0284359	 0.000541439	 59	 59	 59	 0	 0	 1	-30	 30;
	 48	 79	 0.0147412	 0.0401339	 0.000552619	 59	 59	 59	 0	 0	 1	-30	 30;
	 49	 52	 0.000805184	 0.00281732	 0.000933626	 159	 159	 159	 0	 0	 1	-30	 30;
	 49	 56	 0.00290386	 0.0119893	 0.00283659	 159	 175	 175	 0	 0	 1	-30	 30;
	 51	 63	 0.00138255	 0.00627602	 0.00217816	 191	 211	 211	 0	 0	 1	-30	 30;
	 52	 53	 0.0012964	 0.00453607	 0.0015032	 159	 159	 159	 0	 0	 1	-30	 30;
	 53	 61	 0.00109819	 0.00446878	 0.00108874	 159	 159	 159	 0	 0	 1	-30	 30;
	 54	 299	 0.0133745	 0.0359058	 0.000508588	 59	 59	 59	 0	 0	 1	-30	 30;
	 54	 301	 0.00826383	 0.0224987	 0.000309793	 59	 59	 59	 0	 0	 1	-30	 30;
	 55	 300	 0.0172275	 0.0469029	 0.000645825	 59	 59	 59	 0	 0	 1	-30	 30;
	 56	 58	 0.00185033	 0.00647428	 0.00214551	 159	 159	 159	 0	 0	 1	-30	 30;
	 56	 77	 0.00882532	 0.0264288	 0.00595356	 128	 128	 128	 0	 0	 1	-30	 30;
	 58	 59	 0.00157895	 0.00405884	 0.00100504	 118	 118	 118	 0	 0	 1	-30	 30;
	 58	 67	 0.00380404	 0.00956235	 0.00247726	 118	 118	 118	 0	 0	 1	-30	 30;
	 59	 67	 0.00295428	 0.00759427	 0.00188049	 118	 118	 118	 0	 0	 1	-30	 30;
	 60	 105	 0.00747753	 0.0173572	 0.000330491	 59	 59	 59	 0	 0	 1	-30	 30;
	 60	 301	 0.00432424	 0.0100376	 0.000191122	 59	 59	 59	 0	 0	 1	-30	 30;
	 62	 63	 0.00122342	 0.00465024	 0.00130172	 159	 175	 175	 0	 0	 1	-30	 30;
	 62	 65	 0.00127965	 0.00447747	 0.00148378	 159	 159	 159	 0	 0	 1	-30	 30;
	 64	 304	 0.00950232	 0.0246269	 0.000465634	 64	 64	 64	 0	 0	 1	-30	 30;
	 65	 70	 0.00278195	 0.00928035	 0.00235358	 142	 142	 142	 0	 0	 1	-30	 30;
	 66	 69	 0.0115689	 0.0310585	 0.000439928	 59	 59	 59	 0	 0	 1	-30	 30;
	 67	 68	 0.00379214	 0.00982803	 0.00297319	 128	 128	 128	 0	 0	 1	-30	 30;
	 67	 215	 0.00587949	 0.0136479	 0.00415787	 118	 118	 118	 0	 0	 1	-30	 30;
	 68	 103	 0.0280256	 0.07206	 0.0178485	 118	 118	 118	 0	 0	 1	-30	 30;
	 68	 310	 0.00962791	 0.0289798	 0.00906673	 142	 142	 142	 0	 0	 1	-30	 30;
	 69	 71	 0.00736032	 0.0190755	 0.000360671	 64	 64	 64	 0	 0	 1	-30	 30;
	 69	 106	 0.00833571	 0.0223784	 0.000316978	 59	 59	 59	 0	 0	 1	-30	 30;
	 70	 97	 0.0037182	 0.00863088	 0.00262941	 118	 118	 118	 0	 0	 1	-30	 30;
	 71	 72	 0.0113157	 0.0262666	 0.000500133	 59	 59	 59	 0	 0	 1	-30	 30;
	 72	 73	 0.0120442	 0.0350069	 0.000422235	 59	 59	 59	 0	 0	 1	-30	 30;
	 72	 75	 0.00692162	 0.0242186	 0.000501611	 80	 80	 80	 0	 0	 1	-30	 30;
	 72	 311	 0.0338677	 0.102845	 0.00140771	 64	 64	 64	 0	 0	 1	-30	 30;
	 74	 75	 0.00762538	 0.0177004	 0.000337026	 59	 59	 59	 0	 0	 1	-30	 30;
	 75	 211	 0.0211877	 0.0691057	 0.00114664	 71	 71	 71	 0	 0	 1	-30	 30;
	 76	 157	 0.0111407	 0.0303313	 0.000417642	 59	 59	 59	 0	 0	 1	-30	 30;
	 76	 329	 0.0152657	 0.0451785	 0.000525231	 59	 59	 59	 0	 0	 1	-30	 30;
	 77	 155	 0.000957401	 0.00625987	 0.00231814	 238	 238	 238	 0	 0	 1	-30	 30;
	 77	 210	 0.00723174	 0.024125	 0.00611849	 142	 142	 142	 0	 0	 1	-30	 30;
	 78	 79	 0.0115631	 0.0268409	 0.000511069	 59	 59	 59	 0	 0	 1	-30	 30;
	 82	 84	 0.0214347	 0.0538815	 0.000872429	 59	 59	 59	 0	 0	 1	-30	 30;
	 82	 308	 0.0336631	 0.13699	 0.0020861	 80	 80	 80	 0	 0	 1	-30	 30;
	 83	 89	 0.00326333	 0.0179703	 0.00040548	 110	 110	 110	 0	 0	 1	-30	 30;
	 83	 95	 0.0071271	 0.0362649	 0.000821701	 103	 103	 103	 0	 0	 1	-30	 30;
	 84	 90	 0.00881465	 0.0352745	 0.000744718	 88	 88	 88	 0	 0	 1	-30	 30;
	 84	 308	 0.0207086	 0.105376	 0.00238776	 103	 103	 103	 0	 0	 1	-30	 30;
	 84	 309	 0.0544157	 0.148158	 0.00204017	 59	 59	 59	 0	 0	 1	-30	 30;
	 85	 86	 0.0109571	 0.0557639	 0.0202216	 205	 205	 205	 0	 0	 1	-30	 30;
	 85	 165	 0.0188339	 0.0488178	 0.0147708	 128	 128	 128	 0	 0	 1	-30	 30;
	 87	 102	 0.0570206	 0.171641	 0.0033565	 71	 71	 71	 0	 0	 1	-30	 30;
	 87	 311	 0.112278	 0.3015	 0.00427183	 59	 59	 59	 0	 0	 1	-30	 30;
	 88	 89	 0.0124077	 0.0318952	 0.000493617	 59	 59	 59	 0	 0	 1	-30	 30;
	 88	 96	 0.0185184	 0.0429861	 0.000818487	 59	 59	 59	 0	 0	 1	-30	 30;
	 89	 90	 0.008203	 0.0287022	 0.000594474	 80	 80	 80	 0	 0	 1	-30	 30;
	 90	 91	 0.0151566	 0.0351823	 0.000669896	 59	 59	 59	 0	 0	 1	-30	 30;
	 91	 93	 0.0308305	 0.0715665	 0.0013627	 59	 59	 59	 0	 0	 1	-30	 30;
	 92	 100	 0.03833	 0.0985336	 0.00152497	 59	 59	 59	 0	 0	 1	-30	 30;
	 93	 94	 0.0129974	 0.0301701	 0.00057446	 59	 59	 59	 0	 0	 1	-30	 30;
	 93	 100	 0.0385521	 0.0894914	 0.00170403	 59	 59	 59	 0	 0	 1	-30	 30;
	 96	 309	 0.0112069	 0.0321428	 0.000494307	 64	 64	 64	 0	 0	 1	-30	 30;
	 97	 103	 0.0254826	 0.0693915	 0.0152913	 118	 118	 118	 0	 0	 1	-30	 30;
	 98	 99	 0.00912932	 0.0229486	 0.000371572	 59	 59	 59	 0	 0	 1	-30	 30;
	 99	 100	 0.0175375	 0.0407091	 0.000775132	 59	 59	 59	 0	 0	 1	-30	 30;
	 100	 311	 0.0134916	 0.0607196	 0.000753636	 80	 80	 80	 0	 0	 1	-30	 30;
	 100	 312	 0.0636286	 0.184953	 0.00223101	 59	 59	 59	 0	 0	 1	-30	 30;
	 101	 202	 0.00734631	 0.0498762	 0.090905	 366	 366	 366	 0	 0	 1	-30	 30;
	 102	 104	 0.0566399	 0.268112	 0.0040303	 88	 88	 88	 0	 0	 1	-30	 30;
	 104	 255	 0.0654888	 0.26654	 0.00405968	 80	 80	 80	 0	 0	 1	-30	 30;
	 109	 370	 0.0971037	 0.33991	 0.00704412	 80	 80	 80	 0	 0	 1	-30	 30;
	 110	 361	 0.0733982	 0.256882	 0.00532219	 80	 80	 80	 0	 0	 1	-30	 30;
	 111	 183	 0.0270605	 0.062829	 0.0191459	 118	 118	 118	 0	 0	 1	-30	 30;
	 112	 113	 0.0617325	 0.168082	 0.00231458	 59	 59	 59	 0	 0	 1	-30	 30;
	 113	 121	 0.0840487	 0.195125	 0.00371589	 59	 59	 59	 0	 0	 1	-30	 30;
	 113	 316	 0.112054	 0.260171	 0.0049552	 59	 59	 59	 0	 0	 1	-30	 30;
	 118	 119	 0.0976509	 0.245514	 0.00397609	 59	 59	 59	 0	 0	 1	-30	 30;
	 118	 134	 0.107365	 0.249278	 0.00474763	 59	 59	 59	 0	 0	 1	-30	 30;
	 120	 125	 0.0126583	 0.038378	 0.00679852	 118	 118	 118	 0	 0	 1	-30	 30;
	 121	 123	 0.0570438	 0.132421	 0.00252156	 59	 59	 59	 0	 0	 1	-30	 30;
	 121	 316	 0.0623345	 0.144705	 0.00275551	 59	 59	 59	 0	 0	 1	-30	 30;
	 122	 123	 0.0529321	 0.142111	 0.00201306	 59	 59	 59	 0	 0	 1	-30	 30;
	 123	 317	 0.0325373	 0.0755286	 0.00143814	 59	 59	 59	 0	 0	 1	-30	 30;
	 124	 125	 0.00390896	 0.0104942	 0.00237833	 118	 118	 118	 0	 0	 1	-30	 30;
	 126	 127	 0.00641122	 0.0161162	 0.00417519	 118	 118	 118	 0	 0	 1	-30	 30;
	 126	 128	 0.0066312	 0.0153928	 0.0046895	 118	 118	 118	 0	 0	 1	-30	 30;
	 127	 131	 0.0065563	 0.0229411	 0.0076027	 159	 159	 159	 0	 0	 1	-30	 30;
	 128	 129	 0.0130299	 0.0349824	 0.00792861	 118	 118	 118	 0	 0	 1	-30	 30;
	 129	 261	 0.0247468	 0.0641509	 0.0194124	 128	 128	 128	 0	 0	 1	-30	 30;
	 130	 347	 0.117632	 0.295775	 0.00479055	 59	 59	 59	 0	 0	 1	-30	 30;
	 132	 133	 0.00826896	 0.021431	 0.00648349	 128	 128	 128	 0	 0	 1	-30	 30;
	 134	 338	 0.163987	 0.380862	 0.00725623	 59	 59	 59	 0	 0	 1	-30	 30;
	 135	 136	 0.00829494	 0.019255	 0.00586617	 118	 118	 118	 0	 0	 1	-30	 30;
	 137	 177	 0.0197528	 0.0599898	 0.0131399	 128	 128	 128	 0	 0	 1	-30	 30;
	 139	 146	 0.0249937	 0.0580281	 0.0176822	 118	 118	 118	 0	 0	 1	-30	 30;
	 141	 144	 0.00302388	 0.0208319	 0.03678	 366	 366	 366	 0	 0	 1	-30	 30;
	 142	 323	 0.0863299	 0.235071	 0.00323733	 59	 59	 59	 0	 0	 1	-30	 30;
	 142	 342	 0.139884	 0.37568	 0.00532372	 59	 59	 59	 0	 0	 1	-30	 30;
	 143	 227	 0.0174004	 0.0467181	 0.010589	 118	 118	 118	 0	 0	 1	-30	 30;
	 143	 322	 0.0177535	 0.0509251	 0.0125322	 128	 128	 128	 0	 0	 1	-30	 30;
	 144	 229	 0.00900864	 0.0571241	 0.119827	 366	 366	 366	 0	 0	 1	-30	 30;
	 146	 150	 0.0140906	 0.0327097	 0.00996572	 118	 118	 118	 0	 0	 1	-30	 30;
	 147	 325	 0.0791203	 0.209126	 0.00305973	 59	 59	 59	 0	 0	 1	-30	 30;
	 147	 326	 0.082026	 0.190428	 0.00362642	 59	 59	 59	 0	 0	 1	-30	 30;
	 147	 349	 0.265243	 0.723125	 0.0099733	 59	 59	 59	 0	 0	 1	-30	 30;
	 148	 326	 0.0830837	 0.208878	 0.00338257	 59	 59	 59	 0	 0	 1	-30	 30;
	 149	 194	 0.0144797	 0.0506718	 0.0167954	 159	 159	 159	 0	 0	 1	-30	 30;
	 150	 151	 0.00494563	 0.0134648	 0.00296645	 118	 118	 118	 0	 0	 1	-30	 30;
	 152	 161	 0.00111164	 0.00765738	 0.0135173	 366	 366	 366	 0	 0	 1	-30	 30;
	 153	 154	 0.0125628	 0.0419084	 0.000664273	 71	 71	 71	 0	 0	 1	-30	 30;
	 153	 329	 0.00207934	 0.0213879	 0.000379101	 147	 147	 147	 0	 0	 1	-30	 30;
	 154	 163	 0.0233049	 0.0599079	 0.000927155	 59	 59	 59	 0	 0	 1	-30	 30;
	 156	 157	 0.00728562	 0.0219285	 0.000428765	 71	 71	 71	 0	 0	 1	-30	 30;
	 158	 160	 0.00931023	 0.0216119	 0.00658426	 118	 118	 118	 0	 0	 1	-30	 30;
	 158	 170	 0.0176001	 0.0472545	 0.0107106	 118	 118	 118	 0	 0	 1	-30	 30;
	 159	 331	 0.0120254	 0.0327398	 0.000450806	 59	 59	 59	 0	 0	 1	-30	 30;
	 159	 333	 0.0239715	 0.0602586	 0.000975686	 59	 59	 59	 0	 0	 1	-30	 30;
	 160	 332	 0.00165469	 0.00662172	 0.00223677	 175	 175	 175	 0	 0	 1	-30	 30;
	 161	 168	 0.00379572	 0.0261512	 0.0461764	 366	 366	 366	 0	 0	 1	-30	 30;
	 162	 163	 0.019485	 0.0452297	 0.000861208	 59	 59	 59	 0	 0	 1	-30	 30;
	 162	 164	 0.0379626	 0.101919	 0.00144367	 59	 59	 59	 0	 0	 1	-30	 30;
	 164	 268	 0.121379	 0.365507	 0.00715102	 71	 71	 71	 0	 0	 1	-30	 30;
	 165	 334	 0.0170195	 0.0595634	 0.0197441	 159	 159	 159	 0	 0	 1	-30	 30;
	 166	 171	 0.00440947	 0.0279357	 0.0585246	 366	 366	 366	 0	 0	 1	-30	 30;
	 166	 367	 0.00610091	 0.0420469	 0.0742793	 366	 366	 366	 0	 0	 1	-30	 30;
	 167	 169	 0.0118184	 0.0317283	 0.000449416	 59	 59	 59	 0	 0	 1	-30	 30;
	 167	 336	 0.0244252	 0.0655735	 0.000928826	 59	 59	 59	 0	 0	 1	-30	 30;
	 168	 171	 0.00209702	 0.0132826	 0.0278179	 366	 366	 366	 0	 0	 1	-30	 30;
	 171	 172	 0.00338709	 0.0237534	 0.0404482	 366	 366	 366	 0	 0	 1	-30	 30;
	 171	 202	 0.00661861	 0.0456191	 0.080601	 366	 366	 366	 0	 0	 1	-30	 30;
	 173	 337	 0.0662078	 0.166443	 0.00269522	 59	 59	 59	 0	 0	 1	-30	 30;
	 173	 338	 0.130514	 0.303059	 0.00577263	 59	 59	 59	 0	 0	 1	-30	 30;
	 174	 175	 0.0169739	 0.0436368	 0.0108064	 118	 118	 118	 0	 0	 1	-30	 30;
	 174	 242	 0.0260258	 0.0604254	 0.0184131	 118	 118	 118	 0	 0	 1	-30	 30;
	 175	 176	 0.00448237	 0.0122035	 0.00268857	 118	 118	 118	 0	 0	 1	-30	 30;
...
];

mpc_regionR2.gencost = [
%	2           startup     shutdown    n           c(n-1)...c0 
	 2	 0	 0	 3	 0.03227	 11.77	-5.023;
	 2	 0	 0	 3	 0.03227	 12.37	-5.023;
	 2	 0	 0	 3	 0	 24.34	-247.4;
	 2	 0	 0	 3	 0.03225	 12.16	-5.468;
	 2	 0	 0	 3	 0.03225	 10.86	-5.469;
	 2	 0	 0	 3	 0	 18.8	-34.48;
	 2	 0	 0	 3	 0	 18.21	-34.48;
	 2	 0	 0	 3	 0	 18.79	-34.48;
	 2	 0	 0	 3	 0	 34.1	-36.63;
	 2	 0	 0	 3	 0.003135	 23.7	 0;
	 2	 0	 0	 3	 0.002815	 25.56	 0;
	 2	 0	 0	 3	 0	 34.07	-71.09;
	 2	 0	 0	 3	 0	 33.95	-108.3;
	 2	 0	 0	 3	 0	 34.25	-108.3;
	 2	 0	 0	 3	 0	 36.62	-108.3;
	 2	 0	 0	 3	 0	 22.67	-34.64;
	 2	 0	 0	 3	 0	 21.76	-34.91;
];


% -------------------- mpc_regionR3 --------------------

mpc_regionR3.version = '2';
mpc_regionR3.baseMVA = 100.0000;
mpc_regionR3.bus = [
%	bus_i       type        Pd          Qd          Gs          Bs          area        Vm          Va          baseKV      zone        Vmax        Vmin        
	 1	 2	 0	 0	 0	 0	 1	 1	 0	 500	 1	 1.1	 0.9;
	 2	 1	 0	 0	 0	 0	 1	 1	 0	 500	 1	 1.1	 0.9;
	 3	 1	 0	 0	 0	 0	 1	 1	 0	 500	 1	 1.1	 0.9;
	 4	 2	 0	 0	 0	 0	 1	 1	 0	 230	 1	 1.1	 0.9;
	 5	 2	 0	 0	 0	 0	 1	 1	 0	 500	 1	 1.1	 0.9;
	 6	 1	 0	 0	 0	 0	 1	 1	 0	 500	 1	 1.1	 0.9;
	 7	 1	 0	 0	 0	 0	 1	 1	 0	 138	 1	 1.1	 0.9;
	 8	 1	 0	 0	 0	 0	 1	 1	 0	 138	 1	 1.1	 0.9;
	 9	 1	 0	 0	 0	 0	 1	 1	 0	 500	 1	 1.1	 0.9;
	 10	 1	 0	 0	 0	 0	 1	 1	 0	 138	 1	 1.1	 0.9;
	 11	 1	 0	 0	 0	 0	 1	 1	 0	 500	 1	 1.1	 0.9;
	 12	 1	 0	 0	 0	 0	 1	 1	 0	 230	 1	 1.1	 0.9;
	 13	 1	 0	 0	 0	 0	 1	 1	 0	 138	 1	 1.1	 0.9;
	 14	 2	 0	 0	 0	 0	 1	 1	 0	 69	 1	 1.1	 0.9;
	 15	 1	 0	 0	 0	 0	 1	 1	 0	 138	 1	 1.1	 0.9;
	 16	 2	 0	 0	 0	 0	 1	 1	 0	 138	 1	 1.1	 0.9;
	 17	 1	 0	 0	 0	 0	 1	 1	 0	 138	 1	 1.1	 0.9;
	 18	 2	 0	 0	 0	 0	 1	 1	 0	 138	 1	 1.1	 0.9;
	 19	 2	 0	 0	 0	 0	 1	 1	 0	 138	 1	 1.1	 0.9;
	 20	 1	 0	 0	 0	 0	 1	 1	 0	 230	 1	 1.1	 0.9;
	 21	 2	 0	 0	 0	 0	 1	 1	 0	 138	 1	 1.1	 0.9;
	 22	 1	 6.17	 0.97	 0	 0	 1	 1	 0	 69	 1	 1.1	 0.9;
	 23	 1	 5.36	 0.62	 0	 0	 1	 1	 0	 138	 1	 1.1	 0.9;
	 24	 1	 0	 0	 0	 0	 1	 1	 0	 500	 1	 1.1	 0.9;
	 25	 1	 11.24	 1.26	 0	 0	 1	 1	 0	 500	 1	 1.1	 0.9;
	 26	 1	 34.09	 4.77	 0	 0	 1	 1	 0	 500	 1	 1.1	 0.9;
	 27	 1	 0	 0	 0	 0	 1	 1	 0	 138	 1	 1.1	 0.9;
	 28	 1	 0	 0	 0	 0	 1	 1	 0	 138	 1	 1.1	 0.9;
	 29	 1	 53.97	 5.81	 0	 0	 1	 1	 0	 500	 1	 1.1	 0.9;
	 30	 1	 29.04	 4.07	 0	 0	 1	 1	 0	 500	 1	 1.1	 0.9;
	 31	 1	 0	 0	 0	 0	 1	 1	 0	 138	 1	 1.1	 0.9;
	 32	 1	 7.01	 1.14	 0	 0	 1	 1	 0	 69	 1	 1.1	 0.9;
	 33	 1	 7.56	 0.88	 0	 0	 1	 1	 0	 138	 1	 1.1	 0.9;
	 34	 1	 18.16	 2.84	 0	 0	 1	 1	 0	 69	 1	 1.1	 0.9;
	 35	 1	 18.42	 1.9	 0	 0	 1	 1	 0	 69	 1	 1.1	 0.9;
	 36	 1	 0	 0	 0	 0	 1	 1	 0	 138	 1	 1.1	 0.9;
	 37	 1	 9.81	 1.07	 0	 0	 1	 1	 0	 69	 1	 1.1	 0.9;
	 38	 1	 0	 0	 0	 0	 1	 1	 0	 138	 1	 1.1	 0.9;
	 39	 1	 8.49	 0.9	 0	 0	 1	 1	 0	 138	 1	 1.1	 0.9;
	 40	 1	 13.43	 1.46	 0	 0	 1	 1	 0	 230	 1	 1.1	 0.9;
	 41	 1	 6.49	 1.01	 0	 0	 1	 1	 0	 69	 1	 1.1	 0.9;
	 42	 1	 0	 0	 0	 0	 1	 1	 0	 138	 1	 1.1	 0.9;
	 43	 1	 0	 0	 0	 0	 1	 1	 0	 138	 1	 1.1	 0.9;
	 44	 1	 3.68	 0.42	 0	 0	 1	 1	 0	 69	 1	 1.1	 0.9;
	 45	 1	 0	 0	 0	 0	 1	 1	 0	 138	 1	 1.1	 0.9;
	 46	 1	 0	 0	 0	 0	 1	 1	 0	 138	 1	 1.1	 0.9;
	 47	 1	 0	 0	 0	 0	 1	 1	 0	 138	 1	 1.1	 0.9;
	 48	 1	 7.75	 0.87	 0	 0	 1	 1	 0	 138	 1	 1.1	 0.9;
	 49	 1	 19.1	 2.16	 0	 0	 1	 1	 0	 138	 1	 1.1	 0.9;
	 50	 1	 3.34	 0.53	 0	 0	 1	 1	 0	 138	 1	 1.1	 0.9;
	 51	 1	 7.81	 0.88	 0	 0	 1	 1	 0	 138	 1	 1.1	 0.9;
	 52	 1	 15.26	 1.77	 0	 0	 1	 1	 0	 69	 1	 1.1	 0.9;
	 53	 1	 0	 0	 0	 0	 1	 1	 0	 138	 1	 1.1	 0.9;
	 54	 1	 7.09	 0.88	 0	 0	 1	 1	 0	 138	 1	 1.1	 0.9;
	 55	 1	 3.21	 0.45	 0	 0	 1	 1	 0	 69	 1	 1.1	 0.9;
	 56	 1	 16.2	 1.81	 0	 0	 1	 1	 0	 69	 1	 1.1	 0.9;
	 57	 1	 13.94	 1.9	 0	 0	 1	 1	 0	 230	 1	 1.1	 0.9;
	 58	 1	 112.82	 12.48	 0	 0	 1	 1	 0	 500	 1	 1.1	 0.9;
	 59	 1	 17.99	 2	 0	 0	 1	 1	 0	 138	 1	 1.1	 0.9;
	 60	 1	 25.72	 4.01	 0	 0	 1	 1	 0	 138	 1	 1.1	 0.9;
	 61	 1	 0	 0	 0	 0	 1	 1	 0	 138	 1	 1.1	 0.9;
	 62	 1	 0	 0	 0	 0	 1	 1	 0	 138	 1	 1.1	 0.9;
	 63	 1	 2.28	 0.32	 0	 0	 1	 1	 0	 69	 1	 1.1	 0.9;
	 64	 1	 50.88	 6.07	 0	 0	 1	 1	 0	 138	 1	 1.1	 0.9;
	 65	 1	 0	 0	 0	 0	 1	 1	 0	 138	 1	 1.1	 0.9;
	 66	 1	 28.98	 3.91	 0	 0	 1	 1	 0	 69	 1	 1.1	 0.9;
	 67	 1	 10.86	 1.22	 0	 0	 1	 1	 0	 138	 1	 1.1	 0.9;
	 68	 1	 0	 0	 0	 0	 1	 1	 0	 230	 1	 1.1	 0.9;
	 69	 1	 4.6	 0.52	 0	 0	 1	 1	 0	 69	 1	 1.1	 0.9;
	 70	 1	 3.94	 0.45	 0	 0	 1	 1	 0	 69	 1	 1.1	 0.9;
	 71	 1	 0	 0	 0	 0	 1	 1	 0	 138	 1	 1.1	 0.9;
	 72	 1	 20.42	 2.7	 0	 0	 1	 1	 0	 69	 1	 1.1	 0.9;
	 73	 1	 13.48	 1.65	 0	 0	 1	 1	 0	 69	 1	 1.1	 0.9;
	 74	 1	 24.97	 2.65	 0	 0	 1	 1	 0	 69	 1	 1.1	 0.9;
	 75	 1	 754.28	 100	 0	 0	 1	 1	 0	 500	 1	 1.1	 0.9;
	 76	 1	 4.39	 0.61	 0	 0	 1	 1	 0	 69	 1	 1.1	 0.9;
	 77	 1	 13.41	 1.41	 0	 0	 1	 1	 0	 69	 1	 1.1	 0.9;
	 78	 1	 6.88	 0.84	 0	 0	 1	 1	 0	 69	 1	 1.1	 0.9;
	 79	 1	 8.2	 1	 0	 0	 1	 1	 0	 69	 1	 1.1	 0.9;
	 80	 1	 10.96	 1.17	 0	 0	 1	 1	 0	 69	 1	 1.1	 0.9;
	 81	 1	 7.11	 0.81	 0	 0	 1	 1	 0	 69	 1	 1.1	 0.9;
...